%nproc=1
%NoSave
%Mem=1900MB
#P OB98/GEN NMR

erre ene a

0 1
  C       17.904     306.078    -145.597
  O       18.442     305.114    -146.499
  P       19.841     304.420    -146.135
  C       20.625     301.992    -146.835
  O       20.172     303.278    -147.201
  C       21.411     301.378    -148.010
  O       20.527     301.131    -149.125
  C       22.535     302.278    -148.514
  O       23.732     302.090    -147.787
  C       22.637     301.858    -149.970
  O       23.349     300.615    -150.083
  C       21.145     301.661    -150.336
  N       20.374     302.843    -150.775
  C       20.753     303.524    -151.931
  O       21.708     303.213    -152.635
  N       19.973     304.599    -152.279
  C       18.788     304.956    -151.711
  O       18.099     305.889    -152.098
  C       18.357     304.114    -150.586
  C       19.156     303.126    -150.171
  O       19.532     303.620    -144.791
  O       20.980     305.384    -145.969
  H       23.092     300.063    -149.321
  H       20.050     303.985    -144.049
  H       20.277     305.145    -153.072
  H       17.398     304.333    -150.133
  H       18.843     302.497    -149.341
  H       21.034     300.906    -151.114
  H       23.200     302.587    -150.552
  H       22.221     303.328    -148.488
  H       21.822     300.418    -147.679
  H       19.784     301.345    -146.570
  H       21.259     302.067    -145.946
  P       23.962     302.882    -146.410
  C       24.805     301.937    -144.183
  O       25.017     301.996    -145.576
  O       22.729     303.285    -145.674
  O       24.840     304.150    -146.845
  H       24.271     304.938    -146.993
  H       25.485     301.187    -143.757
  H       23.773     301.647    -143.957
  H       25.021     302.908    -143.729
  H       16.975     306.445    -145.980
  H       18.592     306.891    -145.492
  H       17.742     305.622    -144.643

 3  4  5  6  7  8  9  10  11  12  13  23  28  29  30  31  32 0
 6-311+G(2d,p)
 ****
 33  34 0
 6-311+G(2d,p)
 ****
 1  2  14  15  16  17  18  19  20  21  22  24  25  26  27 0
 3-21G
 ****
 35  36  37  38  39  40  41  42  43  44  45 0
 3-21G
 ****


