%nproc=1
%NoSave
%Mem=1900MB
#P OB98/GEN NMR

erre ene a

0 1
  C     -224.571     303.385     -68.818
  O     -225.586     303.254     -69.796
  P     -226.218     301.809     -70.058
  C     -224.894     301.157     -72.204
  O     -225.108     300.930     -70.823
  C     -225.329     299.944     -73.027
  O     -224.366     298.856     -72.830
  C     -226.715     299.398     -72.649
  O     -227.317     298.888     -73.849
  C     -226.374     298.245     -71.715
  O     -227.431     297.306     -71.581
  C     -225.120     297.700     -72.420
  N     -224.330     296.815     -71.556
  C     -224.889     295.585     -71.228
  O     -225.989     295.206     -71.606
  N     -224.144     294.806     -70.369
  C     -222.974     295.173     -69.757
  O     -222.426     294.479     -68.907
  C     -222.434     296.483     -70.148
  C     -223.123     297.236     -71.019
  O     -227.326     302.085     -71.187
  O     -226.802     301.154     -68.852
  H     -227.081     296.550     -71.070
  H     -228.214     302.135     -70.778
  H     -224.523     293.908     -70.123
  H     -221.503     296.797     -69.692
  H     -222.766     298.220     -71.305
  H     -225.401     297.161     -73.337
  H     -226.133     298.635     -70.728
  H     -227.363     300.140     -72.181
  H     -225.301     300.207     -74.089
  H     -223.829     301.345     -72.370
  H     -225.440     302.051     -72.524
  P     -228.922     298.947     -73.965
  C     -228.875     296.366     -73.534
  O     -229.482     297.610     -73.272
  O     -229.113     298.672     -75.537
  O     -229.513     300.240     -73.503
  H     -228.539     297.969     -75.869
  H     -227.796     296.467     -73.670
  H     -229.312     295.927     -74.429
  H     -229.056     295.704     -72.685
  H     -224.257     304.406     -68.765
  H     -223.738     302.769     -69.084
  H     -224.951     303.079     -67.866

 3  4  5  6  7  8  9  10  11  12  13  23  28  29  30  31  32 0
 6-311+G(2d,p)
 ****
 33  34 0
 6-311+G(2d,p)
 ****
 1  2  14  15  16  17  18  19  20  21  22  24  25  26 0
 3-21G
 ****
 27  35  36  37  38  39  40  41  42  43  44  45 0
 3-21G
 ****


