%nproc=1
%NoSave
%Mem=1900MB
#P OB98/GEN NMR

erre ene a

0 1
  C     -420.333    -871.193    2241.282
  O     -421.244    -871.329    2242.372
  H     -419.699    -872.077    2241.248
  H     -419.705    -870.317    2241.441
  H     -420.875    -871.095    2240.336
  P     -422.334    -870.163    2242.554
  C     -424.248    -871.714    2243.375
  O     -423.764    -870.863    2242.345
  C     -424.817    -873.008    2242.801
  O     -423.755    -873.705    2242.059
  C     -425.365    -873.997    2243.843
  O     -426.524    -874.646    2243.267
  C     -424.252    -875.000    2243.985
  O     -424.697    -876.255    2244.507
  C     -423.748    -875.083    2242.546
  N     -421.314    -879.423    2241.907
  C     -422.651    -879.153    2241.904
  N     -423.491    -880.193    2241.701
  N     -423.171    -877.949    2242.081
  C     -422.202    -876.992    2242.237
  C     -420.851    -877.123    2242.257
  C     -420.301    -878.491    2242.107
  O     -419.122    -878.785    2242.099
  N     -420.231    -875.950    2242.470
  C     -421.211    -875.056    2242.566
  N     -422.437    -875.666    2242.450
  O     -422.136    -869.291    2241.220
  O     -422.193    -869.347    2243.781
  H     -425.476    -876.543    2244.003
  H     -421.526    -868.556    2241.385
  H     -420.973    -880.365    2241.761
  H     -421.093    -874.007    2242.744
  H     -424.426    -875.664    2241.896
  H     -423.479    -874.623    2244.671
  H     -423.191    -881.121    2241.511
  H     -425.664    -873.535    2244.789
  H     -424.475    -879.999    2241.652
  H     -425.597    -872.741    2242.050
  H     -425.042    -871.191    2243.938
  H     -423.422    -871.947    2244.089
  P     -427.972    -874.132    2243.680
  C     -429.324    -874.266    2241.432
  O     -428.660    -873.449    2242.400
  O     -427.654    -872.878    2244.615
  O     -428.808    -875.166    2244.369
  H     -428.373    -872.758    2245.294
  H     -429.720    -873.647    2240.654
  H     -430.122    -874.801    2241.904
  H     -428.627    -874.962    2241.014

 6  7  8  9  10  11  12  13  14  15  26  29  33  34 0
 6-311+G(2d,p)
 ****
 36  38  39  40  41 0
 6-311+G(2d,p)
 ****
 1  2  3  4  5  16  17  18  19  20  21  22  23  24  25 0
 3-21G
 ****
 27  28  30  31  32  35  37  42  43  44  45  46  47 0
 3-21G
 ****
 48  49 0
 3-21G
 ****


