%nproc=1
%NoSave
%Mem=1900MB
#P OB98/GEN NMR

erre ene a

0 1
  C       -7.470    -348.049     170.095
  O       -8.733    -348.697     170.105
  P       -8.800    -350.220     170.608
  C      -10.110    -349.720     172.807
  O       -8.906    -350.173     172.211
  C      -10.900    -350.893     173.398
  O      -10.074    -351.536     174.409
  C      -12.224    -350.513     174.080
  O      -13.122    -351.607     173.885
  C      -11.845    -350.412     175.545
  O      -12.968    -350.540     176.413
  C      -10.823    -351.541     175.647
  N      -10.365    -351.799     180.684
  C      -11.486    -351.960     179.891
  N      -12.635    -352.295     180.524
  N      -11.484    -351.811     178.585
  C      -10.257    -351.488     178.097
  C       -9.090    -351.257     178.779
  C       -9.096    -351.465     180.211
  O       -8.118    -351.414     180.947
  N       -8.081    -350.861     177.940
  C       -8.611    -350.929     176.735
  N       -9.924    -351.346     176.775
  O       -7.311    -350.748     170.340
  O       -9.841    -351.081     169.954
  H      -13.620    -349.850     176.164
  H       -7.244    -351.192     169.478
  H      -10.428    -351.948     181.683
  H       -8.117    -350.695     175.811
  H      -11.290    -352.527     175.762
  H      -11.382    -349.438     175.739
  H      -12.694    -352.462     181.518
  H      -12.658    -349.589     173.685
  H      -13.459    -352.459     179.956
  H      -11.072    -351.628     172.602
  H      -10.730    -349.241     172.039
  H       -9.884    -348.977     173.584
  P      -14.668    -351.268     173.609
  C      -14.542    -351.971     171.112
  O      -14.824    -350.942     172.046
  O      -14.849    -349.840     174.306
  O      -15.635    -352.262     174.170
  H      -15.763    -349.756     174.658
  H      -15.057    -351.746     170.170
  H      -14.872    -352.946     171.470
  H      -13.464    -352.001     170.925
  H       -7.586    -347.047     169.738
  H       -6.801    -348.582     169.452
  H       -7.071    -348.030     171.088

 3  4  5  6  7  8  9  10  11  12  23  26  30  31 0
 6-311+G(2d,p)
 ****
 33  35  36  37  38 0
 6-311+G(2d,p)
 ****
 1  2  13  14  15  16  17  18  19  20  21  22  24  25 0
 3-21G
 ****
 27  28  29  32  34  39  40  41  42  43  44  45  46  47  48  49 0
 3-21G
 ****


