%nproc=1
%NoSave
%Mem=1900MB
#P OB98/GEN NMR

erre ene a

0 1
  C      190.257    -707.513    -486.094
  O      189.992    -707.825    -487.449
  H      190.338    -706.427    -485.992
  H      191.205    -707.965    -485.780
  H      189.442    -707.863    -485.452
  P      189.835    -709.365    -487.864
  C      192.339    -709.868    -488.300
  O      191.232    -710.038    -487.430
  C      193.421    -710.904    -487.981
  O      194.045    -710.638    -486.706
  C      192.926    -712.341    -487.876
  O      192.607    -712.927    -489.120
  C      194.141    -712.987    -487.223
  O      195.172    -713.170    -488.204
  C      194.518    -711.910    -486.188
  N      193.944    -712.167    -484.860
  C      194.647    -713.048    -484.034
  O      195.693    -713.581    -484.424
  N      194.138    -713.341    -482.783
  C      193.013    -712.815    -482.417
  N      192.551    -713.149    -481.173
  C      192.224    -711.901    -483.266
  C      192.740    -711.611    -484.463
  O      189.409    -709.626    -489.276
  O      188.828    -709.979    -486.775
  H      195.953    -713.499    -487.734
  H      188.685    -710.927    -486.994
  H      191.273    -711.518    -482.919
  H      192.222    -710.955    -485.137
  H      195.612    -711.831    -486.089
  H      193.920    -713.970    -486.797
  H      192.081    -712.410    -487.178
  H      194.211    -710.805    -488.750
  H      193.105    -713.779    -480.621
  H      192.719    -708.847    -488.172
  H      191.638    -712.848    -480.834
  H      192.027    -710.004    -489.339
  P      191.133    -713.586    -489.257
  C      191.839    -715.896    -488.247
  O      191.044    -714.720    -488.121
  O      191.233    -714.410    -490.633
  O      189.991    -712.610    -489.247
  H      190.832    -713.899    -491.362
  H      191.659    -716.540    -487.411
  H      192.874    -715.626    -488.272
  H      191.581    -716.406    -489.152

 6  7  8  9  10  11  12  13  14  15  16  26  30  31  32  33  35 0
 6-311+G(2d,p)
 ****
 37  38 0
 6-311+G(2d,p)
 ****
 1  2  3  4  5  17  18  19  20  21  22  23  24  25 0
 3-21G
 ****
 27  28  29  34  36  39  40  41  42  43  44  45  46 0
 3-21G
 ****


