%nproc=1
%NoSave
%Mem=1900MB
#P OB98/GEN NMR

erre ene a

0 1
  C      344.594    -158.944     253.159
  O      345.414    -159.825     253.913
  P      345.940    -159.429     255.380
  C      344.043    -160.699     256.598
  O      344.638    -159.445     256.313
  C      343.535    -160.735     258.039
  O      344.679    -160.731     258.938
  C      342.638    -159.549     258.424
  O      341.654    -160.044     259.343
  C      343.599    -158.614     259.129
  O      342.943    -157.697     259.992
  C      344.513    -159.620     259.838
  N      345.807    -159.041     260.198
  C      346.042    -158.775     261.552
  O      345.178    -158.994     262.400
  N      347.260    -158.260     261.914
  C      348.136    -157.957     261.004
  N      349.349    -157.503     261.419
  C      347.885    -158.122     259.558
  C      346.721    -158.684     259.237
  O      346.737    -158.176     255.442
  O      346.724    -160.729     255.880
  H      342.144    -157.369     259.540
  H      347.664    -160.753     255.572
  H      348.632    -157.826     258.835
  H      346.462    -158.869     258.203
  H      344.023    -160.011     260.736
  H      344.159    -158.033     258.385
  H      342.138    -159.101     257.562
  H      343.005    -161.684     258.193
  H      349.542    -157.569     262.409
  H      344.802    -161.478     256.471
  H      350.164    -157.562     260.815
  H      343.227    -160.895     255.890
  P      340.286    -159.223     259.502
  C      338.506    -161.083     259.187
  O      339.157    -159.957     258.632
  O      340.586    -157.914     258.611
  O      339.914    -158.814     260.891
  H      340.037    -157.179     258.936
  H      337.770    -161.451     258.466
  H      337.981    -160.808     260.106
  H      339.226    -161.880     259.388
  H      344.357    -159.395     252.218
  H      345.117    -158.025     252.992
  H      343.691    -158.748     253.698

 3  4  5  6  7  8  9  10  11  12  13  23  27  28  29  30  32 0
 6-311+G(2d,p)
 ****
 34  35 0
 6-311+G(2d,p)
 ****
 1  2  14  15  16  17  18  19  20  21  22  24  25  26 0
 3-21G
 ****
 31  33  36  37  38  39  40  41  42  43  44  45  46 0
 3-21G
 ****


