%nproc=1
%NoSave
%Mem=1900MB
#P OB98/GEN NMR

erre ene a

0 1
  C        8.685    -298.516    -626.517
  O        9.896    -299.119    -626.112
  H        8.354    -297.825    -625.740
  H        7.910    -299.276    -626.660
  H        8.834    -297.962    -627.450
  P       10.487    -300.264    -627.072
  C       12.773    -301.526    -627.072
  O       11.987    -300.473    -626.530
  C       14.255    -301.212    -626.902
  O       14.579    -299.937    -627.491
  C       14.719    -301.107    -625.446
  O       14.889    -302.369    -624.820
  C       16.042    -300.392    -625.648
  O       17.020    -301.306    -626.166
  C       15.643    -299.333    -626.704
  N       15.198    -298.070    -626.110
  C       16.073    -297.449    -625.217
  O       17.164    -297.964    -624.942
  N       15.682    -296.276    -624.609
  C       14.527    -295.756    -624.897
  N       14.196    -294.596    -624.262
  C       13.580    -296.366    -625.848
  C       13.968    -297.509    -626.416
  O       10.721    -299.495    -628.465
  O        9.680    -301.512    -627.188
  H       17.865    -300.819    -626.203
  H       11.223    -300.079    -629.085
  H       12.627    -295.897    -626.030
  H       13.327    -298.008    -627.126
  H       16.473    -299.122    -627.384
  H       16.451    -299.972    -624.720
  H       14.052    -300.475    -624.853
  H       14.823    -301.981    -627.445
  H       14.840    -294.236    -623.572
  H       12.531    -301.630    -628.139
  H       13.266    -294.191    -624.304
  H       12.542    -302.473    -626.565
  P       15.799    -302.418    -623.498
  C       16.135    -304.141    -621.578
  O       15.329    -303.701    -622.653
  O       15.246    -301.192    -622.633
  O       17.275    -302.318    -623.740
  H       15.964    -300.769    -622.119
  H       15.685    -304.999    -621.123
  H       16.223    -303.358    -620.854
  H       17.107    -304.399    -621.943

 6  7  8  9  10  11  12  13  14  15  16  26  30  31  32  33  35 0
 6-311+G(2d,p)
 ****
 37  38 0
 6-311+G(2d,p)
 ****
 1  2  3  4  5  17  18  19  20  21  22  23  24  25 0
 3-21G
 ****
 27  28  29  34  36  39  40  41  42  43  44  45  46 0
 3-21G
 ****


