%nproc=1
%NoSave
%Mem=1900MB
#P OB98/GEN NMR

erre ene a

0 1
  C     -169.794     903.178     438.455
  O     -168.564     903.073     439.146
  H     -169.943     902.275     437.869
  H     -169.776     904.039     437.783
  H     -170.621     903.277     439.175
  P     -168.147     904.325     440.061
  C     -165.660     903.818     439.523
  O     -166.627     904.061     440.525
  C     -164.284     903.633     440.150
  O     -163.680     904.915     440.452
  C     -164.267     902.830     441.440
  O     -164.268     901.436     441.181
  C     -162.975     903.298     442.079
  O     -161.826     902.624     441.524
  C     -162.952     904.795     441.703
  N     -162.381     906.713     446.346
  C     -161.546     905.908     445.606
  N     -160.412     905.487     446.224
  N     -161.810     905.508     444.378
  C     -162.996     905.957     443.916
  C     -163.898     906.786     444.543
  C     -163.587     907.243     445.879
  O     -164.252     908.018     446.560
  N     -164.972     907.049     443.733
  C     -164.738     906.359     442.636
  N     -163.546     905.664     442.705
  O     -168.986     904.110     441.406
  O     -168.405     905.672     439.465
  H     -161.012     903.044     441.854
  H     -169.199     904.976     441.796
  H     -162.129     906.995     447.274
  H     -165.381     906.317     441.768
  H     -161.936     905.168     441.518
  H     -162.948     903.114     443.154
  H     -160.328     905.476     447.225
  H     -165.110     903.116     442.081
  H     -159.798     904.878     445.693
  H     -163.636     903.148     439.390
  H     -165.632     904.666     438.827
  H     -165.945     902.907     438.969
  P     -164.603     900.448     442.408
  C     -162.313     899.260     442.051
  O     -163.718     899.127     442.175
  O     -166.094     899.952     442.098
  O     -164.494     901.075     443.770
  H     -166.498     899.572     442.906
  H     -161.875     898.295     441.901
  H     -161.916     899.697     442.943
  H     -162.087     899.888     441.215

 6  7  8  9  10  11  12  13  14  15  26  29  33  34 0
 6-311+G(2d,p)
 ****
 36  38  39  40  41 0
 6-311+G(2d,p)
 ****
 1  2  3  4  5  16  17  18  19  20  21  22  23  24  25 0
 3-21G
 ****
 27  28  30  31  32  35  37  42  43  44  45  46  47 0
 3-21G
 ****
 48  49 0
 3-21G
 ****


