%nproc=1
%NoSave
%Mem=1900MB
#P OB98/GEN NMR

erre ene a

0 1
  C     -482.850     662.439     189.631
  O     -482.896     661.490     188.582
  H     -483.620     663.195     189.451
  H     -481.876     662.938     189.650
  H     -483.046     661.964     190.592
  P     -481.925     660.212     188.656
  C     -483.721     658.546     187.874
  O     -482.472     659.157     187.571
  C     -484.251     657.788     186.657
  O     -484.745     658.750     185.690
  C     -483.198     656.922     185.964
  O     -483.828     655.717     185.517
  C     -482.790     657.759     184.764
  O     -482.295     656.962     183.688
  C     -484.080     658.493     184.432
  N     -483.676     660.597     179.855
  C     -484.031     659.313     180.217
  N     -484.286     658.444     179.215
  N     -484.114     658.907     181.460
  C     -483.843     659.882     182.364
  C     -483.477     661.182     182.131
  C     -483.374     661.616     180.752
  O     -483.050     662.741     180.373
  N     -483.251     661.855     183.309
  C     -483.483     660.955     184.250
  N     -483.828     659.740     183.726
  O     -481.717     659.642     190.021
  O     -480.557     660.725     188.007
  H     -481.587     656.394     184.050
  H     -479.909     660.950     188.702
  H     -483.616     660.846     178.881
  H     -483.403     661.134     185.312
  H     -484.757     657.900     183.803
  H     -481.995     658.459     185.060
  H     -484.259     658.686     178.239
  H     -482.350     656.680     186.606
  H     -484.572     657.497     179.458
  H     -485.114     657.185     186.969
  H     -484.427     659.325     188.163
  H     -483.596     657.855     188.716
  P     -482.934     654.400     185.329
  C     -484.094     653.338     187.373
  O     -483.706     653.171     186.014
  O     -481.496     654.535     185.709
  O     -483.088     654.079     183.764
  H     -482.279     653.644     183.450
  H     -484.596     652.456     187.712
  H     -484.753     654.177     187.455
  H     -483.225     653.507     187.974

 6  7  8  9  10  11  12  13  14  15  26  29  33  34 0
 6-311+G(2d,p)
 ****
 36  38  39  40  41 0
 6-311+G(2d,p)
 ****
 1  2  3  4  5  16  17  18  19  20  21  22  23  24  25 0
 3-21G
 ****
 27  28  30  31  32  35  37  42  43  44  45  46  47 0
 3-21G
 ****
 48  49 0
 3-21G
 ****


