%nproc=1
%NoSave
%Mem=1900MB
#P OB98/GEN NMR

erre ene a

0 1
  C      185.274     157.186     -75.124
  O      184.729     157.826     -73.988
  H      185.045     157.786     -76.009
  H      184.832     156.193     -75.249
  H      186.358     157.101     -75.025
  P      184.903     157.074     -72.580
  C      182.674     155.743     -72.691
  O      184.095     155.693     -72.694
  C      182.140     155.072     -71.431
  O      180.755     155.439     -71.227
  C      182.151     153.550     -71.486
  O      183.440     153.014     -71.247
  C      181.158     153.215     -70.384
  O      181.784     153.221     -69.089
  C      180.126     154.359     -70.503
  N      178.890     153.921     -71.143
  C      178.029     153.176     -70.341
  O      178.274     152.889     -69.168
  N      176.886     152.730     -70.946
  C      176.544     152.922     -72.257
  O      175.536     152.431     -72.755
  C      177.487     153.728     -73.050
  C      178.603     154.176     -72.470
  O      184.014     157.958     -71.587
  O      186.311     156.938     -72.106
  H      184.589     158.529     -71.043
  H      181.064     153.102     -68.440
  H      176.254     152.179     -70.387
  H      177.242     153.906     -74.092
  H      179.321     154.757     -73.042
  H      179.875     154.752     -69.510
  H      180.724     152.224     -70.522
  H      181.744     153.201     -72.443
  H      182.723     155.432     -70.570
  H      182.288     155.213     -73.570
  H      182.354     156.789     -72.743
  P      183.836     151.628     -71.953
  C      183.283     150.166     -69.839
  O      183.015     150.475     -71.197
  O      185.339     151.440     -71.442
  O      183.670     151.643     -73.435
  H      185.472     151.754     -70.531
  H      182.637     149.376     -69.519
  H      183.112     151.033     -69.236
  H      184.302     149.856     -69.738

 6  7  8  9  10  11  12  13  14  15  16  27  31  32  33  34  35 0
 6-311+G(2d,p)
 ****
 36  37 0
 6-311+G(2d,p)
 ****
 1  2  3  4  5  17  18  19  20  21  22  23  24  25 0
 3-21G
 ****
 26  28  29  30  38  39  40  41  42  43  44  45 0
 3-21G
 ****


