%nproc=1
%NoSave
%Mem=1900MB
#P OB98/GEN NMR

erre ene a

0 1
  C     1129.602    -939.127    -604.029
  O     1130.260    -938.396    -605.074
  P     1130.387    -936.795    -605.075
  C     1132.754    -936.556    -606.091
  O     1131.952    -936.399    -604.931
  C     1134.000    -935.664    -606.030
  O     1133.614    -934.261    -605.867
  C     1134.975    -936.011    -604.885
  O     1136.294    -935.836    -605.415
  C     1134.655    -934.937    -603.861
  O     1135.660    -934.756    -602.884
  C     1134.421    -933.740    -604.790
  N     1133.785    -932.583    -604.183
  C     1133.759    -931.388    -604.927
  O     1134.309    -931.297    -606.018
  N     1133.111    -930.295    -604.388
  C     1132.569    -930.362    -603.213
  N     1131.944    -929.252    -602.753
  C     1132.582    -931.602    -602.409
  C     1133.192    -932.635    -602.942
  O     1129.513    -936.119    -604.078
  O     1130.014    -936.338    -606.564
  H     1129.547    -935.485    -606.529
  H     1135.505    -933.907    -602.453
  H     1132.104    -931.622    -601.429
  H     1133.222    -933.596    -602.408
  H     1135.389    -933.433    -605.235
  H     1133.734    -935.216    -603.338
  H     1134.873    -937.025    -604.520
  H     1134.511    -935.737    -606.997
  H     1131.946    -928.436    -603.351
  H     1132.158    -936.277    -606.970
  H     1131.479    -929.205    -601.860
  H     1133.032    -937.605    -606.182
  P     1137.399    -936.983    -605.215
  C     1137.233    -937.952    -607.631
  O     1137.051    -938.171    -606.236
  O     1136.935    -937.628    -603.815
  O     1138.817    -936.541    -605.118
  H     1137.702    -938.050    -603.378
  H     1137.730    -938.829    -608.062
  H     1137.829    -937.072    -607.843
  H     1136.243    -937.843    -608.083
  H     1129.644    -940.174    -604.245
  H     1128.580    -938.816    -603.965
  H     1130.092    -938.936    -603.097

 3  4  5  6  7  8  9  10  11  12  13  24  27  28  29  30  32 0
 6-311+G(2d,p)
 ****
 34  35 0
 6-311+G(2d,p)
 ****
 1  2  14  15  16  17  18  19  20  21  22  23  25  26 0
 3-21G
 ****
 31  33  36  37  38  39  40  41  42  43  44  45  46 0
 3-21G
 ****


