%nproc=1
%NoSave
%Mem=1900MB
#P OB98/GEN NMR

erre ene a

0 1
  C      -40.621     -76.933    -116.543
  O      -40.189     -77.413    -115.285
  H      -39.768     -76.828    -117.219
  H      -41.323     -77.651    -116.970
  H      -41.126     -75.970    -116.427
  P      -39.167     -76.480    -114.474
  C      -37.381     -77.029    -116.274
  O      -37.695     -76.962    -114.891
  C      -35.917     -77.411    -116.463
  O      -35.639     -77.642    -117.859
  C      -34.918     -76.350    -116.016
  O      -34.727     -76.364    -114.610
  C      -33.669     -76.807    -116.753
  O      -33.062     -77.905    -116.046
  C      -34.248     -77.297    -118.089
  N      -31.205     -73.993    -120.537
  C      -30.956     -74.903    -119.572
  N      -31.814     -75.762    -118.984
  C      -33.044     -75.631    -119.505
  C      -33.448     -74.766    -120.507
  C      -32.465     -73.910    -121.032
  N      -32.749     -72.935    -121.974
  N      -34.797     -74.910    -120.765
  C      -35.202     -75.833    -119.919
  N      -34.179     -76.303    -119.142
  O      -39.328     -77.005    -112.967
  O      -39.423     -75.015    -114.580
  H      -33.631     -78.683    -116.196
  H      -39.947     -76.422    -112.490
  H      -29.930     -74.945    -119.220
  H      -36.220     -76.186    -119.830
  H      -33.746     -78.201    -118.450
  H      -32.912     -76.023    -116.844
  H      -35.202     -75.354    -116.375
  H      -35.744     -78.356    -115.931
  H      -37.562     -76.054    -116.737
  H      -32.134     -72.127    -121.919
  H      -33.736     -72.749    -122.100
  H      -38.031     -77.772    -116.745
  P      -34.922     -74.984    -113.816
  C      -32.524     -75.369    -112.925
  O      -33.860     -74.997    -112.611
  O      -36.330     -75.190    -113.084
  O      -34.927     -73.758    -114.662
  H      -36.938     -74.467    -113.330
  H      -31.927     -75.336    -112.038
  H      -32.125     -74.690    -113.649
  H      -32.515     -76.362    -113.324

 6  7  8  9  10  11  12  13  14  15  25  28  32  33  34  35 0
 6-311+G(2d,p)
 ****
 36  39  40 0
 6-311+G(2d,p)
 ****
 1  2  3  4  5  16  17  18  19  20  21  22  23  24 0
 3-21G
 ****
 26  27  29  30  31  37  38  41  42  43  44  45  46  47  48 0
 3-21G
 ****


