%nproc=1
%NoSave
%Mem=1900MB
#P OB98/GEN NMR

erre ene a

0 1
  C      325.050    -422.009    -665.150
  O      325.229    -423.397    -664.928
  P      324.787    -424.398    -666.106
  C      327.171    -425.429    -666.114
  O      325.769    -425.670    -666.071
  C      327.935    -426.715    -666.409
  O      328.037    -427.512    -665.181
  C      327.276    -427.612    -667.477
  O      328.309    -428.284    -668.226
  C      326.553    -428.653    -666.663
  O      326.321    -429.846    -667.420
  C      327.506    -428.823    -665.478
  N      327.469    -432.705    -662.254
  C      328.439    -432.326    -663.154
  N      329.508    -433.156    -663.254
  N      328.378    -431.246    -663.855
  C      327.247    -430.522    -663.658
  C      326.220    -430.786    -662.773
  C      326.302    -431.996    -661.995
  O      325.460    -432.401    -661.189
  N      325.261    -429.805    -662.806
  C      325.670    -428.972    -663.745
  N      326.862    -429.382    -664.300
  O      325.241    -423.619    -667.442
  O      323.324    -424.722    -666.130
  H      325.764    -429.589    -668.166
  H      324.439    -423.244    -667.884
  H      327.552    -433.553    -661.713
  H      325.158    -428.067    -664.072
  H      328.336    -429.478    -665.739
  H      325.585    -428.258    -666.345
  H      329.577    -434.041    -662.778
  H      326.616    -427.066    -668.170
  H      330.210    -432.917    -663.954
  H      328.962    -426.453    -666.691
  H      327.509    -425.015    -665.169
  H      327.387    -424.685    -666.903
  P      327.949    -428.623    -669.766
  C      330.328    -427.741    -670.367
  O      329.343    -428.754    -670.522
  O      327.342    -427.248    -670.303
  O      327.004    -429.773    -669.932
  H      326.740    -427.412    -671.050
  H      331.201    -428.159    -669.877
  H      329.946    -426.888    -669.776
  H      330.590    -427.368    -671.362
  H      325.383    -421.465    -664.291
  H      324.013    -421.806    -665.321
  H      325.618    -421.708    -666.006

 3  4  5  6  7  8  9  10  11  12  23  26  30  31 0
 6-311+G(2d,p)
 ****
 33  35  36  37  38 0
 6-311+G(2d,p)
 ****
 1  2  13  14  15  16  17  18  19  20  21  22  24  25 0
 3-21G
 ****
 27  28  29  32  34  39  40  41  42  43  44  45  46  47  48  49 0
 3-21G
 ****


