%nproc=1
%NoSave
%Mem=1900MB
#P OB98/GEN NMR

erre ene a

0 1
  C     -436.951      24.076     220.949
  O     -437.653      22.900     221.278
  H     -435.875      23.881     221.015
  H     -437.208      24.861     221.672
  H     -437.189      24.416     219.939
  P     -439.205      22.828     220.872
  C     -439.506      21.086     218.966
  O     -439.479      21.326     220.369
  C     -439.606      19.581     218.690
  O     -438.389      18.937     219.194
  C     -440.813      18.888     219.357
  O     -441.300      17.873     218.479
  C     -440.180      18.213     220.558
  O     -440.950      17.108     221.025
  C     -438.816      17.818     219.990
  N     -436.016      14.104     221.889
  C     -436.720      14.173     220.709
  N     -436.747      13.071     219.930
  N     -437.366      15.253     220.321
  C     -437.244      16.291     221.174
  C     -436.580      16.340     222.372
  C     -435.875      15.149     222.810
  O     -435.249      15.009     223.838
  N     -436.752      17.574     222.975
  C     -437.538      18.247     222.159
  N     -437.864      17.519     221.050
  O     -439.249      23.694     219.517
  O     -440.161      23.343     221.896
  H     -441.293      16.617     220.253
  H     -439.501      24.613     219.724
  H     -435.545      13.252     222.159
  H     -437.900      19.246     222.317
  H     -438.870      16.944     219.341
  H     -440.071      18.924     221.389
  H     -436.251      12.216     220.147
  H     -441.621      19.564     219.624
  H     -437.231      13.121     219.047
  H     -439.623      19.424     217.597
  H     -438.588      21.477     218.520
  H     -440.357      21.614     218.534
  P     -442.887      17.720     218.303
  C     -443.291      18.657     215.910
  O     -443.223      17.515     216.750
  O     -443.424      19.200     218.592
  O     -443.506      16.718     219.227
  H     -444.295      19.154     219.052
  H     -443.523      18.352     214.911
  H     -442.348      19.163     215.919
  H     -444.053      19.318     216.267

 6  7  8  9  10  11  12  13  14  15  26  29  33  34 0
 6-311+G(2d,p)
 ****
 36  38  39  40  41 0
 6-311+G(2d,p)
 ****
 1  2  3  4  5  16  17  18  19  20  21  22  23  24  25 0
 3-21G
 ****
 27  28  30  31  32  35  37  42  43  44  45  46  47 0
 3-21G
 ****
 48  49 0
 3-21G
 ****


