%nproc=1
%NoSave
%Mem=1900MB
#P OB98/GEN NMR

erre ene a

0 1
  C      -98.688     480.075    -137.772
  O      -98.699     478.896    -138.554
  H      -99.473     480.757    -138.105
  H      -98.873     479.807    -136.726
  H      -97.713     480.566    -137.842
  P      -98.436     479.065    -140.126
  C      -96.932     476.943    -140.075
  O      -97.041     478.323    -140.418
  C      -95.475     476.610    -139.772
  O      -95.002     477.416    -138.668
  C      -95.237     475.164    -139.358
  O      -95.166     474.290    -140.472
  C      -93.890     475.287    -138.665
  O      -92.845     475.390    -139.651
  C      -94.046     476.618    -137.913
  N      -92.867     474.944    -133.220
  C      -92.173     474.942    -134.381
  N      -92.563     475.402    -135.586
  C      -93.805     475.906    -135.531
  C      -94.638     475.968    -134.422
  C      -94.120     475.462    -133.214
  N      -94.831     475.446    -132.033
  N      -95.858     476.520    -134.759
  C      -95.751     476.815    -136.037
  N      -94.533     476.454    -136.547
  O      -98.057     480.617    -140.278
  O      -99.559     478.662    -141.020
  H      -92.744     474.500    -140.043
  H      -98.193     480.903    -141.203
  H      -91.176     474.512    -134.330
  H      -96.519     477.290    -136.632
  H      -93.108     477.183    -137.860
  H      -93.652     474.431    -138.032
  H      -95.986     474.822    -138.626
  H      -94.872     476.867    -140.655
  H      -97.275     476.338    -140.919
  H      -94.443     474.897    -131.283
  H      -95.809     475.688    -132.062
  H      -97.564     476.740    -139.205
  P      -96.398     473.291    -140.706
  C      -96.142     473.293    -143.299
  O      -96.959     473.616    -142.173
  O      -97.529     473.871    -139.737
  O      -96.097     471.851    -140.434
  H      -98.153     473.168    -139.469
  H      -96.651     473.568    -144.199
  H      -95.946     472.241    -143.307
  H      -95.218     473.828    -143.234

 6  7  8  9  10  11  12  13  14  15  25  28  32  33  34  35 0
 6-311+G(2d,p)
 ****
 36  39  40 0
 6-311+G(2d,p)
 ****
 1  2  3  4  5  16  17  18  19  20  21  22  23  24 0
 3-21G
 ****
 26  27  29  30  31  37  38  41  42  43  44  45  46  47 0
 3-21G
 ****
 48 0
 3-21G
 ****


