%nproc=1
%NoSave
%Mem=1900MB
#P OB98/GEN NMR

erre ene a

0 1
  C     1025.746     298.544     586.483
  O     1026.293     299.806     586.888
  P     1026.337     300.984     585.801
  C     1028.285     300.069     584.343
  O     1027.862     301.049     585.292
  C     1029.803     300.148     584.142
  O     1030.139     301.366     583.453
  C     1030.605     300.185     585.461
  O     1030.779     298.894     586.018
  C     1031.947     300.758     584.960
  O     1032.726     299.694     584.394
  C     1031.493     301.739     583.855
  N     1034.049     306.104     584.041
  C     1034.419     304.902     583.491
  N     1035.625     304.833     582.885
  N     1033.655     303.831     583.542
  C     1032.469     304.042     584.149
  C     1032.009     305.183     584.747
  C     1032.878     306.355     584.720
  O     1032.630     307.423     585.261
  N     1030.739     305.015     585.232
  C     1030.413     303.763     584.926
  N     1031.464     303.124     584.287
  O     1026.177     302.292     586.699
  O     1025.299     300.910     584.729
  H     1032.926     299.077     585.130
  H     1025.802     303.035     586.147
  H     1034.666     306.905     583.958
  H     1029.471     303.301     585.131
  H     1032.133     301.660     582.976
  H     1032.522     301.208     585.756
  H     1036.180     305.655     582.707
  H     1030.164     300.904     586.174
  H     1035.878     303.962     582.436
  H     1030.112     299.295     583.535
  H     1027.800     300.270     583.379
  H     1028.000     299.089     584.685
  P     1030.557     298.796     587.621
  C     1032.669     300.256     588.019
  O     1032.018     299.013     588.232
  O     1030.268     297.223     587.835
  O     1029.467     299.657     588.155
  H     1029.759     297.093     588.636
  H     1031.958     301.094     588.044
  H     1033.194     300.238     587.068
  H     1033.395     300.409     588.820
  H     1025.781     297.860     587.305
  H     1026.318     298.152     585.668
  H     1024.730     298.678     586.174

 3  4  5  6  7  8  9  10  11  12  23  26  30  31  33  0
 6-311+G(2d,p)
 ****
 35  36  37  38 0
 6-311+G(2d,p)
 ****
 1  2  13  14  15  16  17  18  19  20  21  22  24  25  27  28  29 0
 3-21G
 ****
 32  34  39  40  41  42  43  44  45  46  47  48  49 0
 3-21G
 ****


