%nproc=1
%NoSave
%Mem=1900MB
#P OB98/GEN NMR

erre ene a

0 1
  C      372.108     317.883     557.059
  O      372.745     318.556     555.976
  P      372.941     317.765     554.594
  C      375.494     317.130     554.899
  O      374.481     317.786     554.171
  C      376.869     317.597     554.398
  O      377.112     317.093     553.065
  C      377.002     319.117     554.328
  O      377.414     319.669     555.564
  C      378.013     319.291     553.215
  O      379.343     319.032     553.703
  C      377.572     318.190     552.225
  N      376.514     318.515     551.246
  C      376.832     319.215     550.087
  O      377.958     319.601     549.802
  N      375.786     319.460     549.230
  C      374.531     318.939     549.318
  O      373.654     319.148     548.484
  C      374.286     318.085     550.483
  C      375.261     317.927     551.386
  O      372.235     318.707     553.515
  O      372.370     316.380     554.589
  H      379.934     318.986     552.930
  H      371.459     318.260     553.128
  H      375.989     320.025     548.418
  H      373.315     317.620     550.570
  H      375.086     317.292     552.252
  H      378.431     317.825     551.650
  H      378.023     320.319     552.846
  H      376.058     319.564     553.998
  H      377.639     317.186     555.059
  H      375.406     316.044     554.793
  H      375.385     317.352     555.968
  P      376.324     320.004     556.691
  C      376.748     322.511     556.337
  O      376.736     321.445     557.271
  O      376.087     318.945     557.715
  O      375.003     320.335     555.850
  H      374.424     319.535     555.783
  H      376.882     323.449     556.878
  H      375.804     322.547     555.788
  H      377.582     322.385     555.640
  H      372.053     318.538     557.903
  H      372.673     317.012     557.320
  H      371.120     317.593     556.767

 3  4  5  6  7  8  9  10  11  12  13  23  28  29  30  31  32 0
 6-311+G(2d,p)
 ****
 33  34 0
 6-311+G(2d,p)
 ****
 1  2  14  15  16  17  18  19  20  21  22  24  25  26  27 0
 3-21G
 ****
 35  36  37  38  39  40  41  42  43  44  45 0
 3-21G
 ****


