%nproc=1
%NoSave
%Mem=1900MB
#P OB98/GEN NMR

erre ene a

0 1
  C     -892.780     148.226    -476.091
  O     -892.720     149.352    -476.974
  P     -892.240     150.807    -476.552
  C     -891.250     151.191    -478.944
  O     -892.060     151.681    -477.893
  C     -891.800     151.546    -480.338
  O     -892.840     150.608    -480.718
  C     -892.480     152.932    -480.298
  O     -891.700     154.111    -480.445
  C     -893.630     152.824    -481.320
  O     -893.240     153.287    -482.613
  C     -893.910     151.317    -481.336
  N     -899.010     151.826    -481.420
  C     -898.070     152.432    -482.233
  N     -898.520     153.315    -483.147
  N     -896.790     152.197    -482.133
  C     -896.470     151.357    -481.130
  C     -897.290     150.707    -480.252
  C     -898.730     150.929    -480.387
  O     -899.610     150.410    -479.710
  N     -896.600     149.940    -479.336
  C     -895.330     150.153    -479.652
  N     -895.180     150.992    -480.731
  O     -891.130     150.871    -475.541
  O     -893.580     151.445    -475.858
  H     -893.920     152.965    -483.250
  H     -893.260     152.040    -475.163
  H     -900.000     152.016    -481.539
  H     -894.480     149.707    -479.137
  H     -893.960     150.952    -482.383
  H     -894.460     153.432    -480.998
  H     -899.490     153.621    -483.189
  H     -892.960     153.029    -479.337
  H     -897.830     153.906    -483.579
  H     -891.040     151.473    -481.097
  H     -891.180     150.107    -478.835
  H     -890.230     151.592    -478.853
  P     -891.180     155.038    -479.238
  C     -889.280     156.059    -480.651
  O     -890.440     156.333    -479.893
  O     -889.920     154.209    -478.631
  O     -892.180     155.349    -478.193
  H     -889.710     154.557    -477.746
  H     -888.710     156.984    -480.796
  H     -889.570     155.693    -481.654
  H     -888.630     155.309    -480.169
  H     -893.136     147.371    -476.627
  H     -893.446     148.442    -475.282
  H     -891.803     148.023    -475.705

 3  4  5  6  7  8  9  10  11  12  23  26  30  31 0
 6-311+G(2d,p)
 ****
 33  35  36  37  38 0
 6-311+G(2d,p)
 ****
 1  2  13  14  15  16  17  18  19  20  21  22  24  25 0
 3-21G
 ****
 27  28  29  32  34  39  40  41  42  43  44  45  46  47  48  49 0
 3-21G
 ****


