%nproc=1
%NoSave
%Mem=1900MB
#P OB98/GEN NMR

erre ene a

0 1
  C     -111.598     160.161     150.283
  O     -112.431     161.198     150.759
  H     -111.362     159.492     151.115
  H     -110.666     160.571     149.885
  H     -112.117     159.591     149.508
  P     -112.851     162.326     149.698
  C     -112.195     164.801     149.398
  O     -111.881     163.564     150.026
  C     -110.969     165.713     149.373
  O     -110.561     165.975     150.741
  C     -109.767     165.105     148.641
  O     -109.062     166.143     147.958
  C     -108.905     164.577     149.774
  O     -107.538     164.442     149.396
  C     -109.174     165.618     150.859
  N     -105.645     163.224     153.641
  C     -105.605     163.777     152.410
  N     -106.592     164.420     151.751
  C     -107.692     164.514     152.521
  C     -107.881     164.002     153.790
  C     -106.792     163.317     154.356
  N     -106.831     162.721     155.594
  N     -109.165     164.264     154.228
  C     -109.737     164.932     153.242
  N     -108.888     165.087     152.181
  O     -114.304     162.655     149.646
  O     -112.228     161.752     148.341
  H     -107.012     164.246     150.201
  H     -111.311     161.444     148.469
  H     -104.660     163.683     151.880
  H     -110.756     165.303     153.242
  H     -108.567     166.524     150.735
  H     -109.265     163.590     150.085
  H     -110.045     164.320     147.937
  H     -111.255     166.677     148.935
  H     -113.010     165.299     149.934
  H     -106.002     162.253     155.924
  H     -107.674     162.784     156.147
  H     -112.532     164.584     148.378
  P     -108.907     166.060     146.365
  C     -107.337     164.964     144.641
  O     -107.656     165.115     146.017
  O     -108.929     167.366     145.644
  O     -110.154     165.148     145.935
  H     -110.558     165.520     145.126
  H     -106.492     164.316     144.540
  H     -107.105     165.921     144.222
  H     -108.174     164.542     144.125

 6  7  8  9  10  11  12  13  14  15  25  28  32  33  34  35 0
 6-311+G(2d,p)
 ****
 36  39  40 0
 6-311+G(2d,p)
 ****
 1  2  3  4  5  16  17  18  19  20  21  22  23  24 0
 3-21G
 ****
 26  27  29  30  31  37  38  41  42  43  44  45  46  47 0
 3-21G
 ****
 48 0
 3-21G
 ****


