%nproc=1
%NoSave
%Mem=1900MB
#P OB98/GEN NMR

erre ene a

0 1
  C      449.461    2344.886     511.321
  O      450.624    2344.083     511.144
  P      452.030    2344.770     511.602
  C      452.580    2342.842     513.258
  O      452.366    2344.256     513.073
  C      453.606    2342.562     514.339
  O      454.952    2342.827     513.837
  C      453.431    2343.412     515.610
  O      453.804    2342.603     516.735
  C      454.438    2344.505     515.421
  O      454.736    2345.161     516.666
  C      455.577    2343.722     514.801
  N      459.326    2347.048     515.534
  C      458.413    2346.500     516.444
  N      458.597    2346.850     517.753
  N      457.456    2345.692     516.092
  C      457.471    2345.402     514.785
  C      458.290    2345.863     513.794
  C      459.337    2346.793     514.187
  O      460.126    2347.338     513.424
  N      457.990    2345.335     512.559
  C      456.908    2344.604     512.816
  N      456.572    2344.529     514.149
  O      451.596    2346.304     511.822
  O      453.133    2344.629     510.594
  H      455.493    2345.757     516.508
  H      451.869    2346.834     511.052
  H      460.027    2347.708     515.873
  H      456.331    2344.054     512.083
  H      456.127    2343.135     515.533
  H      454.093    2345.273     514.742
  H      459.338    2347.435     518.082
  H      452.397    2343.799     515.766
  H      457.977    2346.411     518.428
  H      453.525    2341.489     514.597
  H      452.936    2342.420     512.289
  H      451.597    2342.369     513.463
  P      452.926    2341.306     517.074
  C      454.861    2339.689     516.558
  O      453.545    2340.067     516.308
  O      451.546    2341.625     516.281
  O      452.695    2341.130     518.529
  H      450.804    2341.333     516.851
  H      454.991    2338.643     516.315
  H      455.144    2339.899     517.579
  H      455.535    2340.260     515.874
  H      448.600    2344.344     510.991
  H      449.558    2345.785     510.748
  H      449.352    2345.133     512.356

 3  4  5  6  7  8  9  10  11  12  23  26  30  31 0
 6-311+G(2d,p)
 ****
 33  35  36  37  38 0
 6-311+G(2d,p)
 ****
 1  2  13  14  15  16  17  18  19  20  21  22  24  25 0
 3-21G
 ****
 27  28  29  32  34  39  40  41  42  43  44  45  46  47  48  49 0
 3-21G
 ****


