%nproc=1
%NoSave
%Mem=1900MB
#P OB98/GEN NMR

erre ene a

0 1
  C      418.368    -285.848      71.444
  O      418.255    -284.650      70.699
  H      418.821    -285.620      72.411
  H      419.009    -286.554      70.913
  H      417.381    -286.290      71.612
  P      417.405    -284.704      69.345
  C      415.041    -283.840      70.018
  O      415.876    -284.965      69.771
  C      413.579    -284.213      69.768
  O      413.316    -285.502      70.396
  C      412.572    -283.205      70.342
  O      411.452    -283.122      69.450
  C      412.131    -283.863      71.642
  O      410.862    -283.420      72.105
  C      412.150    -285.336      71.233
  N      412.198    -286.238      72.384
  C      410.985    -286.615      72.955
  O      409.880    -286.315      72.515
  N      411.079    -287.373      74.093
  C      412.232    -287.761      74.714
  O      412.249    -288.424      75.747
  C      413.481    -287.324      74.066
  C      413.411    -286.592      72.953
  O      417.850    -286.096      68.692
  O      417.597    -283.550      68.418
  H      418.624    -285.969      68.114
  H      410.587    -284.020      72.828
  H      410.214    -287.651      74.518
  H      414.416    -287.605      74.537
  H      414.305    -286.234      72.465
  H      411.273    -285.577      70.624
  H      412.862    -283.665      72.425
  H      412.987    -282.202      70.511
  H      413.427    -284.348      68.691
  H      415.324    -283.029      69.339
  H      415.182    -283.506      71.053
  P      410.896    -281.661      69.099
  C      411.741    -281.655      66.619
  O      411.839    -281.109      67.927
  O      411.348    -280.838      70.396
  O      409.432    -281.646      68.819
  H      412.200    -281.135      70.749
  H      412.442    -281.167      65.975
  H      410.750    -281.507      66.244
  H      411.957    -282.702      66.653

 6  7  8  9  10  11  12  13  14  15  16  27  31  32  33  34  35 0
 6-311+G(2d,p)
 ****
 36  37 0
 6-311+G(2d,p)
 ****
 1  2  3  4  5  17  18  19  20  21  22  23  24  25 0
 3-21G
 ****
 26  28  29  30  38  39  40  41  42  43  44  45 0
 3-21G
 ****


