%nproc=1
%NoSave
%Mem=1900MB
#P OB98/GEN NMR

erre ene a

0 1
  C       71.792       4.851      81.884
  O       70.942       3.786      81.505
  H       72.354       4.550      82.771
  H       71.207       5.742      82.125
  H       72.501       5.076      81.082
  P       69.974       3.993      80.247
  C       67.988       4.658      81.758
  O       68.862       5.053      80.708
  C       67.149       5.844      82.223
  O       67.995       6.882      82.753
  C       66.312       6.493      81.121
  O       65.118       5.762      80.903
  C       66.056       7.859      81.734
  O       65.032       7.752      82.742
  C       67.413       8.167      82.397
  N       72.092      10.112      82.124
  C       71.430       9.544      83.195
  N       72.100       9.518      84.367
  N       70.219       9.057      83.127
  C       69.646       9.215      81.911
  C       70.192       9.777      80.780
  C       71.558      10.252      80.851
  O       72.190      10.740      79.918
  N       69.277       9.847      79.761
  C       68.195       9.280      80.259
  N       68.364       8.886      81.567
  O       69.408       2.745      79.640
  O       70.857       4.822      79.201
  H       64.964       8.623      83.175
  H       71.327       4.227      78.588
  H       73.023      10.478      82.239
  H       67.268       9.124      79.720
  H       67.298       8.744      83.320
  H       65.716       8.595      81.004
  H       72.969      10.007      84.519
  H       66.892       6.620      80.200
  H       71.609       9.157      85.177
  H       66.510       5.499      83.047
  H       68.607       4.283      82.579
  H       67.328       3.851      81.423
  P       64.478       5.616      79.436
  C       62.734       7.358      80.219
  O       63.640       6.963      79.204
  O       63.712       4.359      79.210
  O       65.713       5.818      78.445
  H       66.219       4.983      78.283
  H       62.249       8.267      79.930
  H       63.268       7.513      81.133
  H       62.001       6.592      80.360

 6  7  8  9  10  11  12  13  14  15  26  29  33  34 0
 6-311+G(2d,p)
 ****
 36  38  39  40  41 0
 6-311+G(2d,p)
 ****
 1  2  3  4  5  16  17  18  19  20  21  22  23  24  25 0
 3-21G
 ****
 27  28  30  31  32  35  37  42  43  44  45  46  47 0
 3-21G
 ****
 48  49 0
 3-21G
 ****


