%nproc=1
%NoSave
%Mem=1900MB
#P OB98/GEN NMR

erre ene a

0 1
  C       -7.359     -43.021     121.146
  O       -8.638     -42.900     121.743
  P       -9.822     -43.809     121.149
  C      -11.136     -41.750     120.263
  O      -10.477     -42.971     119.947
  C      -11.841     -41.165     119.038
  O      -12.551     -39.966     119.433
  C      -10.898     -40.802     117.889
  O      -11.566     -41.101     116.662
  C      -10.751     -39.297     118.016
  O      -10.390     -38.697     116.774
  C      -12.139     -38.904     118.547
  N      -12.124     -37.615     119.230
  C      -12.260     -36.475     118.432
  O      -12.307     -36.584     117.206
  N      -12.286     -35.242     119.036
  C      -12.085     -35.150     120.313
  N      -12.124     -33.908     120.865
  C      -11.814     -36.318     121.173
  C      -11.869     -37.508     120.576
  O      -10.935     -43.740     122.295
  O       -9.427     -45.213     120.825
  H       -9.555     -39.115     116.464
  H      -11.446     -44.572     122.335
  H      -11.615     -36.183     122.227
  H      -11.706     -38.421     121.133
  H      -12.868     -38.856     117.727
  H       -9.975     -39.058     118.754
  H       -9.947     -41.340     117.934
  H      -12.591     -41.891     118.697
  H      -12.297     -33.121     120.252
  H      -10.395     -41.025     120.609
  H      -11.978     -33.738     121.852
  H      -11.850     -41.923     121.075
  P      -10.720     -41.838     115.516
  C      -10.360     -39.660     114.206
  O       -9.746     -40.708     114.929
  O      -11.811     -41.959     114.345
  O      -10.112     -43.165     115.825
  H      -11.434     -42.455     113.596
  H       -9.607     -38.899     113.985
  H      -11.159     -39.205     114.795
  H      -10.759     -40.042     113.262
  H       -6.673     -42.363     121.637
  H       -7.423     -42.761     120.110
  H       -7.016     -44.030     121.240

 3  4  5  6  7  8  9  10  11  12  13  21  23  27  28  29  30  32 0
 6-311+G(2d,p)
 ****
 34  35 0
 6-311+G(2d,p)
 ****
 1  2  14  15  16  17  18  19  20  22  24  25  26 0
 3-21G
 ****
 31  33  36  37  38  39  40  41  42  43  44  45  46 0
 3-21G
 ****


