%nproc=1
%NoSave
%Mem=1900MB
#P OB98/GEN NMR

erre ene a

0 1
  C      -75.702      57.587      53.862
  O      -75.207      58.138      52.659
  H      -76.744      57.896      53.983
  H      -75.127      57.959      54.713
  H      -75.662      56.495      53.834
  P      -73.736      57.731      52.169
  C      -72.635      59.077      54.071
  O      -72.745      58.890      52.666
  C      -72.041      60.451      54.368
  O      -71.919      60.647      55.795
  C      -70.640      60.654      53.800
  O      -70.690      60.876      52.404
  C      -70.173      61.840      54.631
  O      -70.719      63.070      54.128
  C      -70.776      61.505      56.016
  N      -69.811      60.874      56.919
  C      -68.907      61.728      57.542
  O      -68.893      62.944      57.363
  N      -67.980      61.125      58.353
  C      -67.820      59.779      58.518
  O      -66.848      59.277      59.074
  C      -68.849      58.932      57.895
  C      -69.774      59.508      57.123
  O      -73.610      57.367      50.728
  O      -73.351      56.500      53.121
  H      -73.474      55.665      52.632
  H      -70.491      63.760      54.780
  H      -67.289      61.731      58.773
  H      -68.796      57.863      58.056
  H      -70.524      58.901      56.628
  H      -71.151      62.415      56.501
  H      -69.087      61.946      54.627
  H      -70.011      59.788      54.034
  H      -72.731      61.212      53.981
  H      -71.976      58.300      54.475
  H      -73.625      58.974      54.526
  P      -69.583      60.260      51.427
  C      -67.974      62.251      51.311
  O      -68.921      61.464      50.602
  O      -70.048      59.116      50.588
  O      -68.401      59.804      52.409
  H      -68.185      58.867      52.236
  H      -67.598      63.020      50.670
  H      -67.165      61.630      51.635
  H      -68.446      62.695      52.162

 6  7  8  9  10  11  12  13  14  15  16  27  31  32  33  34  35 0
 6-311+G(2d,p)
 ****
 36  37 0
 6-311+G(2d,p)
 ****
 1  2  3  4  5  17  18  19  20  21  22  23  24  25 0
 3-21G
 ****
 26  28  29  30  38  39  40  41  42  43  44  45 0
 3-21G
 ****


