%nproc=1
%NoSave
%Mem=1900MB
#P OB98/GEN NMR

erre ene a

0 1
  C      114.919      26.441     175.871
  O      116.270      26.454     176.343
  P      117.364      27.090     175.348
  C      118.541      24.929     174.515
  O      118.633      26.105     175.310
  C      119.909      24.482     173.995
  O      120.163      25.113     172.716
  C      121.089      24.833     174.911
  O      122.044      23.763     174.856
  C      121.715      26.037     174.230
  O      123.082      26.209     174.593
  C      121.485      25.674     172.764
  N      124.548      29.221     170.866
  C      124.845      28.134     171.664
  N      126.139      27.987     172.026
  N      123.954      27.269     172.072
  C      122.707      27.524     171.606
  C      122.290      28.559     170.801
  C      123.280      29.532     170.394
  O      123.070      30.545     169.730
  N      120.943      28.483     170.542
  C      120.547      27.409     171.194
  N      121.579      26.798     171.861
  O      117.888      28.369     176.155
  O      116.813      27.474     174.016
  H      123.574      25.454     174.219
  H      117.771      29.174     175.615
  H      125.270      29.868     170.598
  H      119.531      27.044     171.240
  H      122.191      24.905     172.427
  H      121.166      26.942     174.515
  H      126.885      28.578     171.694
  H      120.812      25.033     175.950
  H      126.382      27.170     172.574
  H      119.872      23.401     173.822
  H      117.879      25.121     173.664
  H      118.087      24.135     175.117
  P      122.212      22.890     176.190
  C      124.603      23.855     176.543
  O      123.791      22.705     176.397
  O      121.716      21.434     175.745
  O      121.455      23.413     177.365
  H      121.374      20.943     176.516
  H      124.012      24.761     176.697
  H      125.212      23.976     175.644
  H      125.262      23.714     177.403
  H      114.287      25.998     176.612
  H      114.862      25.871     174.967
  H      114.598      27.444     175.681

 3  4  5  6  7  8  9  10  11  12  23  26  30  31  33  0
 6-311+G(2d,p)
 ****
 35  36  37  38 0
 6-311+G(2d,p)
 ****
 1  2  13  14  15  16  17  18  19  20  21  22  24  25  27  28  29 0
 3-21G
 ****
 32  34  39  40  41  42  43  44  45  46  47  48  49 0
 3-21G
 ****


