%nproc=1
%NoSave
%Mem=1900MB
#P OB98/GEN NMR

erre ene a

0 1
  C     -117.769    -134.043     111.174
  O     -118.440    -132.799     111.254
  H     -118.311    -134.772     111.788
  H     -116.745    -133.960     111.549
  H     -117.760    -134.397     110.139
  P     -117.695    -131.500     110.671
  C     -116.200    -129.717     111.792
  O     -116.621    -131.082     111.794
  C     -115.123    -129.470     112.850
  O     -114.100    -130.490     112.788
  C     -114.371    -128.155     112.678
  O     -115.147    -127.001     112.891
  C     -113.133    -128.387     113.532
  O     -113.373    -128.140     114.919
  C     -112.882    -129.901     113.299
  N     -111.749    -130.146     112.413
  C     -110.500    -130.221     113.023
  O     -110.324    -130.070     114.234
  N     -109.439    -130.443     112.185
  C     -109.498    -130.549     110.826
  O     -108.505    -130.728     110.128
  C     -110.842    -130.422     110.231
  C     -111.891    -130.231     111.041
  O     -118.593    -130.376     110.242
  O     -116.780    -132.078     109.492
  H     -112.531    -128.308     115.385
  H     -116.460    -131.355     108.898
  H     -108.528    -130.517     112.611
  H     -110.923    -130.487     109.155
  H     -112.892    -130.136     110.625
  H     -112.677    -130.401     114.259
  H     -112.297    -127.753     113.227
  H     -114.023    -128.095     111.636
  H     -115.594    -129.533     113.840
  H     -117.075    -129.098     112.018
  H     -115.822    -129.454     110.798
  P     -114.546    -125.522     112.949
  C     -113.132    -124.130     114.657
  O     -113.586    -125.408     114.229
  O     -115.494    -124.398     112.677
  O     -113.475    -125.561     111.732
  H     -113.460    -124.664     111.336
  H     -112.507    -124.244     115.518
  H     -113.973    -123.517     114.906
  H     -112.574    -123.668     113.870

 6  7  8  9  10  11  12  13  14  15  16  26  31  32  33  34  35 0
 6-311+G(2d,p)
 ****
 36  37 0
 6-311+G(2d,p)
 ****
 1  2  3  4  5  17  18  19  20  21  22  23  24  25 0
 3-21G
 ****
 27  28  29  30  38  39  40  41  42  43  44  45 0
 3-21G
 ****


