%nproc=1
%NoSave
%Mem=1900MB
#P OB98/GEN NMR

erre ene a

0 1
  C      466.715    -661.676     117.905
  O      467.369    -662.209     119.043
  H      465.845    -661.097     118.237
  H      466.363    -662.471     117.244
  H      467.387    -661.011     117.355
  P      468.589    -663.226     118.807
  C      468.885    -665.442     117.503
  O      467.981    -664.431     117.942
  C      468.244    -666.820     117.655
  O      467.072    -666.926     116.814
  C      469.158    -667.952     117.230
  O      470.146    -668.205     118.210
  C      468.155    -669.072     117.008
  O      467.764    -669.672     118.251
  C      466.969    -668.301     116.378
  N      466.956    -668.381     114.923
  C      466.220    -669.447     114.373
  O      465.631    -670.244     115.114
  N      466.191    -669.592     113.006
  C      466.821    -668.742     112.256
  N      466.769    -668.949     110.905
  C      467.593    -667.606     112.786
  C      467.623    -667.486     114.116
  O      469.355    -663.657     120.021
  O      469.518    -662.460     117.749
  H      467.610    -668.925     118.870
  H      470.168    -661.905     118.208
  H      468.100    -666.928     112.124
  H      468.166    -666.675     114.586
  H      466.012    -668.685     116.761
  H      468.562    -669.856     116.373
  H      469.621    -667.722     116.266
  H      467.918    -666.939     118.698
  H      466.226    -669.749     110.583
  H      469.779    -665.372     118.123
  H      467.131    -668.307     110.219
  H      469.162    -665.270     116.459
  P      471.529    -668.926     117.818
  C      472.216    -671.312     117.121
  O      471.138    -670.446     117.517
  O      472.650    -668.731     118.785
  O      471.846    -668.335     116.357
  H      472.149    -667.402     116.403
  H      471.837    -672.297     116.948
  H      472.951    -671.344     117.898
  H      472.662    -670.938     116.223

 6  7  8  9  10  11  12  13  14  15  16  26  30  31  32  33  35 0
 6-311+G(2d,p)
 ****
 37  38 0
 6-311+G(2d,p)
 ****
 1  2  3  4  5  17  18  19  20  21  22  23  24  25 0
 3-21G
 ****
 27  28  29  34  36  39  40  41  42  43  44  45  46 0
 3-21G
 ****


