%nproc=1
%NoSave
%Mem=1900MB
#P OB98/GEN NMR

erre ene a

0 1
  C      -65.695     -23.652     -57.900
  O      -64.571     -22.929     -57.436
  H      -65.480     -24.722     -57.818
  H      -65.908     -23.416     -58.945
  H      -66.567     -23.424     -57.281
  P      -64.525     -21.348     -57.710
  C      -65.947     -19.338     -56.942
  O      -65.856     -20.757     -57.026
  C      -67.380     -18.891     -56.656
  O      -68.286     -19.410     -57.654
  C      -67.935     -19.389     -55.331
  O      -67.310     -18.849     -54.189
  C      -69.430     -19.194     -55.524
  O      -69.843     -17.854     -55.260
  C      -69.588     -19.510     -57.033
  N      -70.197     -20.815     -57.265
  C      -71.567     -20.896     -57.047
  O      -72.250     -19.948     -56.657
  N      -72.134     -22.123     -57.259
  C      -71.469     -23.260     -57.615
  O      -72.033     -24.337     -57.769
  C      -70.015     -23.123     -57.793
  C      -69.453     -21.924     -57.615
  O      -64.348     -20.944     -59.143
  O      -63.361     -20.826     -56.745
  H      -69.366     -17.280     -55.891
  H      -63.070     -19.915     -56.997
  H      -73.129     -22.199     -57.121
  H      -69.453     -24.006     -58.063
  H      -68.381     -21.796     -57.744
  H      -70.219     -18.751     -57.515
  H      -70.018     -19.848     -54.876
  H      -67.769     -20.474     -55.275
  H      -67.413     -17.798     -56.715
  H      -65.627     -18.925     -57.905
  H      -65.274     -18.974     -56.158
  P      -67.328     -19.545     -52.755
  C      -66.040     -21.551     -51.682
  O      -66.560     -20.949     -52.860
  O      -68.620     -19.504     -52.006
  O      -66.263     -18.642     -51.942
  H      -66.572     -18.599     -51.015
  H      -65.563     -22.475     -51.934
  H      -66.838     -21.738     -50.995
  H      -65.327     -20.893     -51.230

 6  7  8  9  10  11  12  13  14  15  16  26  31  32  33  34  35 0
 6-311+G(2d,p)
 ****
 36  37 0
 6-311+G(2d,p)
 ****
 1  2  3  4  5  17  18  19  20  21  22  23  24  25 0
 3-21G
 ****
 27  28  29  30  38  39  40  41  42  43  44  45 0
 3-21G
 ****


