%nproc=1
%NoSave
%Mem=1900MB
#P OB98/GEN NMR

erre ene a

0 1
  C     -101.636    -107.690    -144.379
  O     -100.718    -106.804    -143.767
  P     -100.236    -107.142    -142.276
  C      -97.723    -106.512    -142.566
  O      -98.685    -107.536    -142.356
  C      -96.459    -107.111    -143.186
  O      -96.776    -107.781    -144.425
  C      -95.403    -106.074    -143.540
  O      -94.677    -105.661    -142.395
  C      -94.558    -106.829    -144.556
  O      -93.594    -107.669    -143.901
  C      -95.619    -107.680    -145.282
  N      -95.962    -107.148    -146.597
  C      -94.898    -106.961    -147.474
  O      -93.730    -107.201    -147.169
  N      -95.217    -106.448    -148.701
  C      -96.459    -106.060    -149.110
  O      -96.674    -105.554    -150.205
  C      -97.541    -106.254    -148.130
  C      -97.247    -106.774    -146.936
  O     -100.964    -108.528    -141.943
  O     -100.555    -106.092    -141.267
  H      -92.966    -107.961    -144.592
  H     -101.214    -108.553    -141.000
  H      -94.465    -106.328    -149.360
  H      -98.540    -105.957    -148.421
  H      -98.027    -106.911    -146.197
  H      -95.253    -108.707    -145.413
  H      -94.001    -106.154    -145.212
  H      -95.874    -105.214    -144.035
  H      -96.051    -107.855    -142.490
  H      -97.478    -106.044    -141.609
  H      -98.150    -105.749    -143.224
  P      -94.129    -104.152    -142.386
  C      -95.285    -103.581    -140.114
  O      -95.181    -103.332    -141.499
  O      -94.426    -103.717    -143.898
  O      -92.697    -104.054    -141.978
  H      -95.222    -104.147    -144.253
  H      -94.311    -103.815    -139.675
  H      -95.970    -104.414    -139.946
  H      -95.686    -102.689    -139.626
  H     -101.866    -107.341    -145.364
  H     -102.533    -107.732    -143.797
  H     -101.203    -108.667    -144.439

 3  4  5  6  7  8  9  10  11  12  13  23  28  29  30  31  32 0
 6-311+G(2d,p)
 ****
 33  34 0
 6-311+G(2d,p)
 ****
 1  2  14  15  16  17  18  19  20  21  22  24  25  26 0
 3-21G
 ****
 27  35  36  37  38  39  40  41  42  43  44  45 0
 3-21G
 ****


