%nproc=1
%NoSave
%Mem=1900MB
#P OB98/GEN NMR

erre ene a

0 1
  C      335.659     -86.237      62.615
  O      334.637     -85.384      62.117
  P      334.461     -83.946      62.816
  C      332.361     -84.812      64.084
  O      333.660     -84.224      64.178
  C      331.832     -85.164      65.471
  O      332.625     -86.215      66.056
  C      331.872     -84.017      66.472
  O      330.766     -83.136      66.324
  C      331.777     -84.773      67.787
  O      330.412     -85.152      68.034
  C      332.627     -86.018      67.496
  N      335.589     -85.544      71.635
  C      334.249     -85.565      71.490
  N      333.536     -85.685      70.352
  C      334.347     -85.748      69.281
  C      335.735     -85.706      69.279
  C      336.366     -85.607      70.528
  N      337.736     -85.617      70.685
  N      336.217     -85.795      67.989
  C      335.149     -85.908      67.233
  N      333.992     -85.894      67.967
  O      333.373     -83.223      61.888
  O      335.714     -83.145      62.941
  H      330.037     -85.440      67.180
  H      333.448     -82.258      61.981
  H      333.672     -85.482      72.409
  H      335.159     -86.004      66.155
  H      332.208     -86.924      67.949
  H      332.109     -84.184      68.645
  H      332.831     -83.478      66.425
  H      330.806     -85.537      65.358
  H      332.427     -85.728      63.486
  H      338.104     -85.730      71.612
  H      338.303     -85.865      69.876
  H      331.687     -84.111      63.581
  P      330.895     -81.689      67.012
  C      329.283     -82.279      68.960
  O      330.597     -81.927      68.567
  O      329.600     -80.922      66.477
  O      332.161     -80.972      66.687
  H      329.750     -79.957      66.479
  H      329.319     -82.700      69.970
  H      328.853     -83.026      68.287
  H      328.649     -81.385      68.977
  H      335.661     -87.152      62.061
  H      335.477     -86.446      63.648
  H      336.608     -85.755      62.511

 3  4  5  6  7  8  9  10  11  12  22  25  29  30  31  32 0
 6-311+G(2d,p)
 ****
 33  36  37 0
 6-311+G(2d,p)
 ****
 1  2  13  14  15  16  17  18  19  20  21  23  24  26 0
 3-21G
 ****
 27  28  34  35  38  39  40  41  42  43  44  45  46  47  48 0
 3-21G
 ****


