%nproc=1
%NoSave
%Mem=1900MB
#P OB98/GEN NMR

erre ene a

0 1
  C     -388.902    -887.592    -300.658
  O     -387.984    -886.667    -300.102
  H     -389.209    -888.296    -299.876
  H     -388.437    -888.154    -301.470
  H     -389.786    -887.061    -301.026
  P     -387.326    -885.606    -301.107
  C     -387.450    -883.731    -299.308
  O     -386.626    -884.475    -300.201
  C     -386.571    -883.112    -298.214
  O     -386.041    -884.156    -297.369
  C     -385.358    -882.361    -298.748
  O     -385.679    -881.063    -299.226
  C     -384.480    -882.318    -297.504
  O     -384.827    -881.221    -296.644
  C     -384.788    -883.666    -296.842
  N     -383.698    -884.621    -297.022
  C     -382.478    -884.264    -296.448
  O     -382.302    -883.224    -295.823
  N     -381.443    -885.145    -296.650
  C     -381.493    -886.284    -297.397
  O     -380.519    -886.994    -297.595
  C     -382.806    -886.601    -297.998
  C     -383.828    -885.772    -297.783
  O     -388.593    -884.860    -301.734
  O     -386.446    -886.191    -302.156
  H     -388.727    -885.155    -302.650
  H     -384.940    -880.443    -297.232
  H     -380.546    -884.912    -296.242
  H     -382.884    -887.499    -298.599
  H     -384.806    -885.971    -298.224
  H     -384.932    -883.532    -295.756
  H     -383.428    -882.201    -297.772
  H     -384.856    -882.951    -299.517
  H     -387.197    -882.454    -297.597
  H     -388.175    -884.400    -298.830
  H     -387.977    -882.961    -299.865
  P     -384.826    -880.480    -300.449
  C     -387.034    -879.551    -301.548
  O     -385.699    -879.302    -301.071
  O     -384.934    -881.683    -301.489
  O     -383.428    -880.106    -300.042
  H     -385.752    -882.196    -301.360
  H     -387.453    -878.642    -301.926
  H     -387.638    -879.915    -300.743
  H     -387.003    -880.281    -302.329

 6  7  8  9  10  11  12  13  14  15  16  27  31  32  33  34  35 0
 6-311+G(2d,p)
 ****
 36  37 0
 6-311+G(2d,p)
 ****
 1  2  3  4  5  17  18  19  20  21  22  23  24  25 0
 3-21G
 ****
 26  28  29  30  38  39  40  41  42  43  44  45 0
 3-21G
 ****


