%nproc=1
%NoSave
%Mem=1900MB
#P OB98/GEN NMR

erre ene a

0 1
  C      112.126     -82.982     -95.048
  O      112.374     -81.660     -94.554
  P      112.175     -80.460     -95.607
  C      114.688     -80.631     -96.244
  O      113.344     -80.563     -96.706
  C      115.645     -79.866     -97.161
  O      115.815     -80.604     -98.396
  C      115.180     -78.455     -97.541
  O      116.328     -77.596     -97.604
  C      114.664     -78.627     -98.958
  O      114.665     -77.401     -99.684
  C      115.638     -79.680     -99.481
  N      115.953     -79.987    -104.519
  C      116.702     -79.239    -103.632
  N      117.653     -78.444    -104.167
  N      116.533     -79.268    -102.336
  C      115.568     -80.133    -101.941
  C      114.767     -80.936    -102.720
  C      114.937     -80.860    -104.155
  O      114.270     -81.459    -104.996
  N      113.900     -81.677    -101.953
  C      114.172     -81.317    -100.715
  N      115.171     -80.377    -100.656
  O      112.555     -79.161     -94.754
  O      110.791     -80.366     -96.156
  H      114.038     -76.803     -99.238
  H      111.814     -78.526     -94.765
  H      116.111     -79.913    -105.508
  H      113.667     -81.680     -99.832
  H      116.615     -79.238     -99.712
  H      113.635     -79.006     -98.927
  H      117.879     -78.423    -105.149
  H      114.431     -78.028     -96.868
  H      118.243     -77.922    -103.530
  H      116.625     -79.824     -96.672
  H      114.999     -81.679     -96.194
  H      114.729     -80.222     -95.230
  P      116.606     -76.682     -96.314
  C      115.608     -74.532     -97.384
  O      115.517     -75.510     -96.367
  O      117.978     -75.942     -96.677
  O      116.691     -77.442     -95.033
  H      118.460     -75.706     -95.861
  H      116.328     -74.808     -98.159
  H      115.915     -73.583     -96.938
  H      114.625     -74.407     -97.844
  H      112.289     -83.692     -94.264
  H      112.790     -83.189     -95.861
  H      111.114     -83.052     -95.388

 3  4  5  6  7  8  9  10  11  12  23  26  30  31  33  0
 6-311+G(2d,p)
 ****
 35  36  37  38 0
 6-311+G(2d,p)
 ****
 1  2  13  14  15  16  17  18  19  20  21  22  24  25  27  28  29 0
 3-21G
 ****
 32  34  39  40  41  42  43  44  45  46  47  48  49 0
 3-21G
 ****


