%nproc=1
%NoSave
%Mem=1900MB
#P OB98/GEN NMR

erre ene a

0 1
  C      310.993    -551.662     467.857
  O      311.508    -550.711     466.950
  H      311.728    -552.463     467.981
  H      310.073    -552.093     467.457
  H      310.800    -551.214     468.836
  P      310.770    -549.294     466.810
  C      312.664    -547.870     467.834
  O      311.928    -548.191     466.662
  C      314.011    -547.233     467.476
  O      314.919    -548.281     467.025
  C      313.926    -546.183     466.359
  O      314.950    -545.217     466.604
  C      314.262    -547.008     465.136
  O      314.633    -546.193     464.043
  C      315.355    -547.923     465.697
  N      315.586    -549.098     464.859
  C      316.416    -548.927     463.756
  O      316.920    -547.838     463.458
  N      316.617    -550.030     462.977
  C      316.034    -551.252     463.153
  O      316.220    -552.195     462.400
  C      315.127    -551.368     464.309
  C      314.950    -550.304     465.100
  O      309.750    -548.988     467.859
  O      310.129    -549.326     465.344
  H      313.878    -545.629     463.770
  H      309.315    -548.788     465.323
  H      317.227    -549.925     462.182
  H      314.638    -552.318     464.472
  H      314.288    -550.354     465.961
  H      316.300    -547.382     465.788
  H      313.397    -547.600     464.812
  H      312.950    -545.700     466.295
  H      314.445    -546.808     468.386
  H      312.827    -548.801     468.392
  H      312.079    -547.182     468.454
  P      315.146    -543.918     465.675
  C      314.538    -542.307     467.584
  O      315.502    -542.661     466.605
  O      314.017    -543.676     464.722
  O      316.509    -544.194     464.879
  H      316.485    -543.730     464.019
  H      314.886    -541.460     468.138
  H      314.387    -543.131     468.250
  H      313.614    -542.063     467.103

 6  7  8  9  10  11  12  13  14  15  16  26  31  32  33  34  35 0
 6-311+G(2d,p)
 ****
 36  37 0
 6-311+G(2d,p)
 ****
 1  2  3  4  5  17  18  19  20  21  22  23  24  25 0
 3-21G
 ****
 27  28  29  30  38  39  40  41  42  43  44  45 0
 3-21G
 ****


