%nproc=1
%NoSave
%Mem=1900MB
#P OB98/GEN NMR

erre ene a

0 1
  C     -177.663    -891.940     390.074
  O     -177.560    -893.330     390.355
  P     -178.546    -894.340     389.527
  C     -180.357    -894.610     391.331
  O     -180.043    -894.110     390.016
  C     -181.668    -893.970     391.845
  O     -182.832    -894.550     391.208
  C     -181.859    -894.180     393.332
  O     -181.011    -893.320     394.069
  C     -183.354    -893.870     393.458
  O     -183.611    -892.450     393.507
  C     -183.928    -894.440     392.118
  N     -184.620    -895.710     392.275
  C     -186.009    -895.640     392.413
  O     -186.574    -894.540     392.419
  N     -186.701    -896.820     392.553
  C     -186.088    -897.950     392.581
  N     -186.830    -899.080     392.705
  C     -184.605    -898.070     392.461
  C     -183.940    -896.940     392.322
  O     -178.066    -895.760     389.470
  O     -178.529    -893.690     388.038
  H     -184.580    -892.390     393.610
  H     -178.645    -894.390     387.385
  H     -184.131    -899.050     392.472
  H     -182.859    -896.920     392.259
  H     -184.627    -893.740     391.663
  H     -183.791    -894.300     394.338
  H     -181.676    -895.210     393.615
  H     -181.618    -892.900     391.592
  H     -187.834    -899.000     392.805
  H     -179.532    -894.390     391.992
  H     -186.437    -900.000     392.677
  H     -180.446    -895.700     391.261
  P     -179.969    -894.000     395.067
  C     -181.032    -893.020     397.228
  O     -180.670    -894.180     396.468
  O     -178.888    -892.830     395.297
  O     -179.286    -895.240     394.511
  H     -178.015    -893.210     395.422
  H     -181.801    -893.300     397.968
  H     -181.525    -892.260     396.540
  H     -180.184    -892.570     397.686
  H     -176.967    -891.401     390.682
  H     -178.657    -891.606     390.288
  H     -177.443    -891.768     389.041

 3  4  5  6  7  8  9  10  11  12  13  23  27  28  29  30  32 0
 6-311+G(2d,p)
 ****
 34  35 0
 6-311+G(2d,p)
 ****
 1  2  14  15  16  17  18  19  20  21  22  24  25  26 0
 3-21G
 ****
 31  33  36  37  38  39  40  41  42  43  44  45  46 0
 3-21G
 ****


