%nproc=1
%NoSave
%Mem=1900MB
#P OB98/GEN NMR

erre ene a

0 1
  C     -128.550     220.207    -989.930
  O     -129.444     219.162    -990.269
  H     -128.204     220.051    -988.900
  H     -129.069     221.167    -989.982
  H     -127.690     220.205    -990.597
  P     -129.936     219.100    -991.797
  C     -131.656     220.997    -991.226
  O     -130.637     220.515    -992.080
  C     -132.248     222.312    -991.777
  O     -132.529     222.137    -993.194
  C     -133.559     222.732    -991.091
  O     -133.579     224.165    -991.007
  C     -134.627     222.258    -992.053
  O     -135.837     222.985    -991.894
  C     -133.914     222.454    -993.412
  N     -134.504     221.628    -994.463
  C     -135.364     222.277    -995.366
  O     -135.599     223.484    -995.233
  N     -135.959     221.541    -996.353
  C     -135.762     220.259    -996.412
  N     -136.401     219.578    -997.404
  C     -134.912     219.531    -995.451
  C     -134.297     220.268    -994.531
  O     -131.160     218.076    -991.707
  O     -128.865     218.710    -992.769
  H     -136.182     222.830    -990.978
  H     -131.747     218.240    -990.951
  H     -134.793     218.443    -995.532
  H     -133.644     219.814    -993.792
  H     -133.971     223.512    -993.720
  H     -134.836     221.197    -991.890
  H     -133.661     222.299    -990.082
  H     -131.484     223.088    -991.693
  H     -137.004     220.116    -998.029
  H     -131.261     221.169    -990.219
  H     -136.373     218.572    -997.507
  H     -132.433     220.232    -991.158
  P     -133.365     224.887    -989.598
  C     -135.773     224.505    -988.715
  O     -134.384     224.249    -988.530
  O     -133.320     226.369    -989.618
  O     -131.946     224.292    -989.109
  H     -131.447     225.016    -988.699
  H     -136.331     224.024    -987.939
  H     -136.083     224.123    -989.665
  H     -135.949     225.560    -988.680

 6  7  8  9  10  11  12  13  14  15  16  26  30  31  32  33  35 0
 6-311+G(2d,p)
 ****
 37  38 0
 6-311+G(2d,p)
 ****
 1  2  3  4  5  17  18  19  20  21  22  23  24  25 0
 3-21G
 ****
 27  28  29  34  36  39  40  41  42  43  44  45  46 0
 3-21G
 ****


