%nproc=1
%NoSave
%Mem=1900MB
#P OB98/GEN NMR

erre ene a

0 1
  C      -41.229    -425.944    -302.514
  O      -40.524    -426.511    -303.599
  H      -41.784    -426.733    -302.003
  H      -41.937    -425.197    -302.881
  H      -40.537    -425.483    -301.802
  P      -39.456    -425.580    -304.349
  C      -37.529    -426.092    -302.680
  O      -38.006    -426.188    -304.014
  C      -36.129    -425.475    -302.672
  O      -35.799    -425.095    -301.304
  C      -35.027    -426.421    -303.166
  O      -34.056    -425.649    -303.882
  C      -34.407    -426.927    -301.876
  O      -33.071    -427.392    -302.022
  C      -34.515    -425.677    -300.993
  N      -34.408    -425.986    -299.568
  C      -33.260    -425.563    -298.906
  O      -32.371    -424.878    -299.410
  N      -33.152    -425.964    -297.597
  C      -34.043    -426.737    -296.917
  O      -33.879    -427.076    -295.750
  C      -35.232    -427.160    -297.671
  C      -35.356    -426.772    -298.944
  O      -39.497    -424.228    -303.497
  O      -39.711    -425.351    -305.802
  H      -40.170    -423.619    -303.854
  H      -32.603    -426.760    -302.604
  H      -32.325    -425.666    -297.106
  H      -35.955    -427.785    -297.165
  H      -36.211    -427.085    -299.535
  H      -33.749    -424.948    -301.270
  H      -35.009    -427.747    -301.469
  H      -35.388    -427.240    -303.795
  H      -36.148    -424.551    -303.263
  H      -37.478    -427.091    -302.238
  H      -38.219    -425.476    -302.092
  P      -34.229    -425.544    -305.474
  C      -35.441    -423.220    -305.424
  O      -34.298    -423.973    -305.797
  O      -35.735    -426.052    -305.657
  O      -33.203    -426.320    -306.230
  H      -36.318    -425.783    -304.923
  H      -35.308    -422.200    -305.718
  H      -35.571    -423.271    -304.363
  H      -36.306    -423.621    -305.909

 6  7  8  9  10  11  12  13  14  15  16  27  31  32  33  34  35 0
 6-311+G(2d,p)
 ****
 36  37 0
 6-311+G(2d,p)
 ****
 1  2  3  4  5  17  18  19  20  21  22  23  24  25 0
 3-21G
 ****
 26  28  29  30  38  39  40  41  42  43  44  45 0
 3-21G
 ****


