%nproc=1
%NoSave
%Mem=1900MB
#P OB98/GEN NMR

erre ene a

0 1
  C       86.308     -57.260     -97.209
  O       87.597     -56.654     -97.095
  P       88.855     -57.626     -97.325
  C       89.476     -58.016     -99.815
  O       89.582     -57.164     -98.681
  C       89.922     -57.291    -101.091
  O       88.855     -56.435    -101.599
  C       91.161     -56.399    -100.892
  O       91.918     -56.466    -102.109
  C       90.535     -55.022    -100.720
  O       91.462     -53.961    -100.885
  C       89.422     -55.112    -101.759
  N       87.365     -50.954    -103.886
  C       88.383     -51.753    -104.266
  N       88.875     -52.846    -103.639
  C       88.193     -53.086    -102.508
  C       87.130     -52.359    -101.985
  C       86.712     -51.241    -102.730
  N       85.688     -50.408    -102.340
  N       86.707     -52.908    -100.783
  C       87.553     -53.899    -100.558
  N       88.406     -54.094    -101.606
  O       88.180     -59.026     -97.709
  O       89.753     -57.735     -96.137
  H       92.045     -53.906    -100.099
  H       88.155     -59.615     -96.933
  H       88.871     -51.478    -105.197
  H       87.586     -54.502     -99.659
  H       89.804     -55.039    -102.783
  H       90.116     -54.939     -99.709
  H       91.795     -56.708    -100.056
  H       90.130     -58.046    -101.861
  H       88.443     -58.350     -99.937
  H       85.464     -49.627    -102.938
  H       85.187     -50.583    -101.478
  H       90.072     -58.919     -99.640
  P       92.942     -57.682    -102.315
  C       91.521     -59.803    -102.592
  O       92.153     -58.721    -103.255
  O       92.834     -58.405    -100.885
  O       94.334     -57.315    -102.712
  H       91.903     -58.553    -100.638
  H       90.959     -60.382    -103.328
  H       90.833     -59.429    -101.828
  H       92.275     -60.450    -102.134
  H       85.551     -56.523     -97.037
  H       86.216     -58.042     -96.484
  H       86.192     -57.669     -98.191

 3  4  5  6  7  8  9  10  11  12  22  25  29  30  31  32 0
 6-311+G(2d,p)
 ****
 33  36  37 0
 6-311+G(2d,p)
 ****
 1  2  13  14  15  16  17  18  19  20  21  23  24  26 0
 3-21G
 ****
 27  28  34  35  38  39  40  41  42  43  44  45  46  47  48 0
 3-21G
 ****


