%nproc=1
%NoSave
%Mem=1900MB
#P OB98/GEN NMR

erre ene a

0 1
  C      377.029     146.230      43.507
  O      376.834     147.625      43.442
  P      375.456     148.322      43.021
  C      375.647     147.639      40.493
  O      374.894     147.578      41.704
  C      374.717     147.794      39.287
  O      375.528     147.977      38.096
  C      373.883     146.520      39.053
  O      372.515     146.756      38.704
  C      374.724     145.734      38.042
  O      373.999     144.742      37.335
  C      375.327     146.859      37.201
  N      377.960     143.473      34.459
  C      376.598     143.535      34.692
  N      375.868     142.458      34.304
  N      376.011     144.560      35.303
  C      376.873     145.505      35.727
  C      378.239     145.546      35.552
  C      378.867     144.437      34.865
  O      380.090     144.292      34.724
  N      378.806     146.620      36.193
  C      377.779     147.218      36.790
  N      376.595     146.548      36.564
  O      375.428     149.811      43.062
  O      374.459     147.780      44.168
  H      374.559     144.423      36.616
  H      373.813     148.484      44.335
  H      378.359     142.632      34.068
  H      377.843     148.095      37.408
  H      374.648     147.174      36.407
  H      375.500     145.214      38.613
  H      376.318     141.619      33.974
  H      373.803     145.934      39.983
  H      374.929     142.382      34.690
  H      374.094     148.692      39.420
  H      376.216     146.709      40.428
  H      376.368     148.459      40.537
  P      371.255     145.818      38.904
  C      371.199     144.781      36.550
  O      371.398     144.538      37.938
  O      370.030     146.626      38.245
  O      370.947     145.480      40.329
  H      369.226     146.519      38.792
  H      371.058     143.817      36.049
  H      372.074     145.266      36.133
  H      370.319     145.410      36.394
  H      378.034     146.024      43.813
  H      376.854     145.800      42.543
  H      376.347     145.807      44.215

 3  4  5  6  7  8  9  10  11  12  23  26  30  31 0
 6-311+G(2d,p)
 ****
 33  35  36  37  38 0
 6-311+G(2d,p)
 ****
 1  2  13  14  15  16  17  18  19  20  21  22  24  25 0
 3-21G
 ****
 27  28  29  32  34  39  40  41  42  43  44  45  46  47  48  49 0
 3-21G
 ****


