%nproc=1
%NoSave
%Mem=1900MB
#P OB98/GEN NMR

erre ene a

0 1
  C      106.417     657.054     460.992
  O      106.976     655.879     460.442
  H      105.405     657.185     460.588
  H      107.019     657.925     460.716
  H      106.354     656.974     462.081
  P      108.456     655.495     460.923
  C      110.381     655.642     459.181
  O      109.462     656.348     460.011
  C      109.659     655.101     457.950
  O      109.011     656.191     457.249
  C      110.573     654.442     456.935
  O      110.945     653.129     457.311
  C      109.711     654.494     455.685
  O      108.779     653.402     455.642
  C      108.960     655.821     455.849
  N      108.328     658.606     451.613
  C      107.540     657.690     452.219
  N      107.773     657.005     453.354
  C      108.959     657.363     453.888
  C      109.861     658.280     453.386
  C      109.507     658.923     452.192
  N      110.318     659.836     451.557
  N      110.977     658.347     454.191
  C      110.756     657.492     455.170
  N      109.539     656.876     455.028
  O      108.633     653.997     460.394
  O      108.690     655.595     462.394
  H      109.307     652.608     455.442
  H      108.482     653.368     461.124
  H      106.599     657.474     451.720
  H      111.431     657.281     455.987
  H      107.905     655.742     455.572
  H      110.320     654.448     454.787
  H      111.471     655.061     456.771
  H      108.873     654.409     458.286
  H      110.818     654.804     459.745
  H      111.192     656.325     458.883
  H      110.031     660.205     450.675
  H      111.254     659.997     451.918
  P      112.391     652.600     456.860
  C      112.425     650.613     455.156
  O      112.245     652.011     455.380
  O      112.628     651.296     457.766
  O      113.492     653.588     457.026
  H      113.566     651.230     458.005
  H      112.292     650.398     454.116
  H      111.706     650.065     455.728
  H      113.412     650.328     455.455

 6  7  8  9  10  11  12  13  14  15  25  28  32  33  34  35 0
 6-311+G(2d,p)
 ****
 36  37  40 0
 6-311+G(2d,p)
 ****
 1  2  3  4  5  16  17  18  19  20  21  22  23  24 0
 3-21G
 ****
 26  27  29  30  31  38  39 41  42  43  44  45  46  47  48 0
 3-21G
 ****


