%nproc=1
%NoSave
%Mem=1900MB
#P OB98/GEN NMR

erre ene a

0 1
  C     -645.686      29.368     499.790
  O     -644.848      30.432     499.384
  H     -646.661      29.780     500.066
  H     -645.265      28.869     500.669
  H     -645.829      28.649     498.980
  P     -643.406      30.084     498.785
  C     -643.927      30.923     496.401
  O     -643.601      29.803     497.218
  C     -644.277      30.446     494.988
  O     -645.600      29.858     494.973
  C     -644.316      31.564     493.953
  O     -643.011      31.962     493.574
  C     -645.123      30.912     492.845
  O     -644.302      30.047     492.049
  C     -646.161      30.097     493.655
  N     -647.455      30.765     493.756
  C     -648.434      30.371     492.839
  O     -648.223      29.534     491.963
  N     -649.644      30.995     492.950
  C     -649.937      32.034     493.788
  O     -651.010      32.625     493.788
  C     -648.872      32.426     494.719
  C     -647.699      31.788     494.664
  O     -642.632      29.039     499.519
  O     -642.637      31.498     498.798
  H     -643.776      30.625     491.458
  H     -641.997      31.505     499.535
  H     -650.356      30.736     492.284
  H     -649.067      33.237     495.412
  H     -646.890      32.062     495.343
  H     -646.316      29.114     493.204
  H     -645.574      31.639     492.180
  H     -644.872      32.424     494.344
  H     -643.554      29.673     494.696
  H     -643.060      31.587     496.354
  H     -644.771      31.459     496.850
  P     -642.456      33.406     493.989
  C     -640.185      32.779     495.010
  O     -641.513      33.228     495.273
  O     -643.495      34.474     494.112
  O     -641.418      33.765     492.827
  H     -641.703      34.575     492.366
  H     -639.648      32.696     495.931
  H     -639.691      33.481     494.371
  H     -640.220      31.823     494.530

 6  7  8  9  10  11  12  13  14  15  16  26  31  32  33  34  35 0
 6-311+G(2d,p)
 ****
 36  37 0
 6-311+G(2d,p)
 ****
 1  2  3  4  5  17  18  19  20  21  22  23  24  25 0
 3-21G
 ****
 27  28  29  30  38  39  40  41  42  43  44  45 0
 3-21G
 ****


