%nproc=1
%NoSave
%Mem=1900MB
#P OB98/GEN NMR

erre ene a

0 1
  C      -29.546     -33.605    -140.934
  O      -29.472     -33.319    -142.318
  P      -30.776     -33.392    -143.240
  C      -31.320     -30.935    -143.713
  O      -31.657     -32.080    -142.941
  C      -32.553     -30.337    -144.385
  O      -33.119     -31.319    -145.298
  C      -33.671     -29.917    -143.418
  O      -34.303     -28.765    -143.994
  C      -34.627     -31.096    -143.476
  O      -35.944     -30.766    -143.049
  C      -34.511     -31.468    -144.950
  N      -38.524     -34.628    -145.153
  C      -38.420     -33.330    -144.795
  N      -37.309     -32.565    -144.742
  C      -36.231     -33.271    -145.113
  C      -36.174     -34.608    -145.472
  C      -37.399     -35.298    -145.501
  N      -37.529     -36.614    -145.895
  N      -34.870     -34.987    -145.727
  C      -34.156     -33.897    -145.528
  N      -34.942     -32.823    -145.216
  O      -31.533     -34.677    -143.171
  O      -30.223     -33.127    -144.717
  H      -35.876     -30.196    -142.259
  H      -30.219     -33.962    -145.224
  H      -39.349     -32.839    -144.521
  H      -33.079     -33.835    -145.588
  H      -35.095     -30.799    -145.593
  H      -34.254     -31.902    -142.831
  H      -33.325     -29.703    -142.406
  H      -32.233     -29.482    -144.994
  H      -30.603     -31.242    -144.481
  H      -38.466     -36.967    -146.007
  H      -36.765     -37.050    -146.409
  H      -30.840     -30.184    -143.072
  P      -34.832     -27.585    -143.043
  C      -32.768     -26.202    -143.648
  O      -33.545     -26.747    -142.596
  O      -35.731     -28.019    -141.932
  O      -35.580     -26.597    -144.057
  H      -36.169     -26.003    -143.557
  H      -32.112     -26.976    -144.057
  H      -32.154     -25.387    -143.252
  H      -33.404     -25.811    -144.449
  H      -28.575     -33.502    -140.496
  H      -29.895     -34.607    -140.795
  H      -30.223     -32.923    -140.465

 3  4  5  6  7  8  9  10  11  12  22  25  29  30  31  32 0
 6-311+G(2d,p)
 ****
 33  36  37 0
 6-311+G(2d,p)
 ****
 1  2  13  14  15  16  17  18  19  20  21  23  24  26 0
 3-21G
 ****
 27  28  34  35  38  39  40  41  42  43  44  45  46  47  48 0
 3-21G
 ****


