%nproc=1
%NoSave
%Mem=1900MB
#P OB98/GEN NMR

erre ene a

0 1
  C      143.676    -309.938     306.873
  O      144.619    -308.914     307.100
  H      142.685    -309.562     307.140
  H      143.896    -310.804     307.500
  H      143.669    -310.229     305.819
  P      146.176    -309.204     306.831
  C      148.215    -307.731     306.317
  O      146.877    -307.755     306.796
  C      148.496    -306.452     305.529
  O      148.014    -306.604     304.166
  C      147.822    -305.202     306.120
  O      148.763    -304.128     306.184
  C      146.737    -304.868     305.107
  O      146.353    -303.498     305.130
  C      147.393    -305.356     303.811
  N      146.429    -305.499     302.728
  C      146.110    -304.332     302.023
  O      146.640    -303.262     302.326
  N      145.165    -304.395     301.036
  C      144.552    -305.514     300.800
  N      143.603    -305.500     299.828
  C      144.836    -306.762     301.539
  C      145.780    -306.686     302.476
  O      146.452    -310.067     305.647
  O      146.720    -309.826     308.201
  H      147.165    -302.947     305.152
  H      147.538    -310.342     308.016
  H      144.293    -307.670     301.308
  H      146.056    -307.550     303.071
  H      148.184    -304.662     303.487
  H      145.845    -305.473     305.321
  H      147.405    -305.370     307.111
  H      149.585    -306.319     305.457
  H      143.435    -304.620     299.350
  H      148.375    -308.614     305.684
  H      143.047    -306.300     299.574
  H      148.892    -307.778     307.177
  P      149.214    -303.668     307.655
  C      151.144    -302.179     308.544
  O      150.217    -302.424     307.497
  O      150.156    -304.865     308.143
  O      148.071    -303.451     308.587
  H      149.711    -305.366     308.853
  H      151.741    -301.325     308.300
  H      151.777    -303.033     308.667
  H      150.613    -301.994     309.454

 6  7  8  9  10  11  12  13  14  15  16  26  30  31  32  33  35 0
 6-311+G(2d,p)
 ****
 37  38 0
 6-311+G(2d,p)
 ****
 1  2  3  4  5  17  18  19  20  21  22  23  24  25 0
 3-21G
 ****
 27  28  29  34  36  39  40  41  42  43  44  45  46 0
 3-21G
 ****


