%nproc=1
%NoSave
%Mem=1900MB
#P OB98/GEN NMR

erre ene a

0 1
  C      511.469      28.121     -88.325
  O      510.797      28.861     -87.324
  H      511.658      28.775     -89.180
  H      510.851      27.281     -88.652
  H      512.429      27.754     -87.944
  P      510.407      28.065     -85.987
  C      509.294      30.154     -84.922
  O      509.126      28.818     -85.378
  C      507.952      30.882     -84.907
  O      507.462      31.076     -86.253
  C      506.849      30.160     -84.141
  O      506.942      30.415     -82.751
  C      505.604      30.770     -84.768
  O      505.303      32.061     -84.199
  C      506.018      30.906     -86.241
  N      502.155      28.532     -88.471
  C      502.183      29.707     -87.749
  N      500.993      30.316     -87.548
  N      503.276      30.239     -87.259
  C      504.381      29.500     -87.511
  C      504.488      28.327     -88.226
  C      503.275      27.773     -88.789
  O      503.193      26.767     -89.489
  N      505.786      27.892     -88.279
  C      506.459      28.777     -87.568
  N      505.647      29.767     -87.065
  O      511.578      28.456     -84.964
  O      510.280      26.587     -86.137
  H      504.963      31.940     -83.295
  H      511.724      27.713     -84.348
  H      501.288      28.184     -88.833
  H      507.525      28.749     -87.387
  H      505.582      31.791     -86.713
  H      504.723      30.144     -84.607
  H      500.122      29.807     -87.601
  H      506.875      29.083     -84.348
  H      501.000      31.169     -87.003
  H      508.126      31.882     -84.480
  H      509.979      30.677     -85.596
  H      509.725      30.139     -83.915
  P      506.288      29.342     -81.750
  C      505.414      31.373     -80.379
  O      505.118      30.111     -80.961
  O      507.414      29.142     -80.632
  O      505.893      28.052     -82.390
  H      507.245      28.326     -80.131
  H      504.541      31.755     -79.893
  H      505.724      32.054     -81.144
  H      506.200      31.260     -79.662

 6  7  8  9  10  11  12  13  14  15  26  29  33  34 0
 6-311+G(2d,p)
 ****
 36  38  39  40  41 0
 6-311+G(2d,p)
 ****
 1  2  3  4  5  16  17  18  19  20  21  22  23  24  25 0
 3-21G
 ****
 27  28  30  31  32  35  37  42  43  44  45  46  47 0
 3-21G
 ****
 48  49 0
 3-21G
 ****


