%nproc=1
%NoSave
%Mem=1900MB
#P OB98/GEN NMR

erre ene a

0 1
  C     -336.855     167.136    -504.497
  O     -337.271     168.411    -504.051
  H     -337.482     166.843    -505.348
  H     -336.992     166.411    -503.694
  H     -335.805     167.146    -504.810
  P     -336.257     169.211    -503.090
  C     -337.249     168.158    -500.923
  O     -336.108     168.325    -501.751
  C     -336.940     167.214    -499.770
  O     -336.047     167.884    -498.844
  C     -338.186     166.773    -498.965
  O     -338.012     165.394    -498.557
  C     -338.115     167.658    -497.725
  O     -338.820     167.101    -496.617
  C     -336.597     167.735    -497.525
  N     -334.893     168.784    -492.912
  C     -334.976     167.572    -493.590
  N     -334.604     166.470    -492.911
  N     -335.397     167.473    -494.823
  C     -335.724     168.648    -495.391
  C     -335.688     169.909    -494.832
  C     -335.233     170.023    -493.458
  O     -335.166     171.052    -492.798
  N     -336.157     170.868    -495.717
  C     -336.486     170.179    -496.787
  N     -336.241     168.838    -496.645
  O     -337.153     170.459    -502.612
  O     -334.981     169.650    -503.726
  H     -338.612     166.162    -496.568
  H     -336.975     171.233    -503.190
  H     -334.582     168.806    -491.961
  H     -336.924     170.609    -497.688
  H     -336.177     166.823    -497.080
  H     -338.534     168.650    -497.933
  H     -334.238     166.468    -491.980
  H     -339.129     166.883    -499.507
  H     -334.624     165.573    -493.417
  H     -336.398     166.330    -500.154
  H     -338.074     167.751    -501.515
  H     -337.560     169.150    -500.538
  P     -338.675     164.278    -499.446
  C     -340.818     164.175    -497.954
  O     -340.277     164.326    -499.277
  O     -338.274     162.921    -498.698
  O     -338.204     164.271    -500.874
  H     -338.129     162.203    -499.355
  H     -341.886     164.228    -497.997
  H     -340.447     164.958    -497.326
  H     -340.523     163.227    -497.554

 6  7  8  9  10  11  12  13  14  15  26  29  33  34 0
 6-311+G(2d,p)
 ****
 36  38  39  40  41 0
 6-311+G(2d,p)
 ****
 1  2  3  4  5  16  17  18  19  20  21  22  23  24  25 0
 3-21G
 ****
 27  28  30  31  32  35  37  42  43  44  45  46  47 0
 3-21G
 ****
 48  49 0
 3-21G
 ****


