%nproc=1
%NoSave
%Mem=1900MB
#P OB98/GEN NMR

erre ene a

0 1
  C     -503.853    -898.220    1522.778
  O     -504.912    -897.290    1522.766
  H     -504.054    -898.990    1523.534
  H     -502.909    -897.740    1523.014
  H     -503.786    -898.720    1521.799
  P     -504.799    -896.000    1521.815
  C     -505.103    -897.110    1519.499
  O     -505.694    -896.330    1520.511
  C     -506.179    -897.720    1518.585
  O     -506.938    -898.730    1519.347
  C     -507.217    -896.690    1518.057
  O     -507.669    -897.150    1516.783
  C     -508.319    -896.810    1519.100
  O     -509.501    -896.180    1518.658
  C     -508.332    -898.320    1519.321
  N     -509.040    -898.700    1520.536
  C     -510.367    -899.070    1520.379
  O     -510.912    -899.060    1519.265
  N     -511.084    -899.440    1521.504
  C     -510.534    -899.380    1522.674
  N     -511.294    -899.710    1523.738
  C     -509.130    -898.920    1522.870
  C     -508.440    -898.610    1521.767
  O     -503.403    -895.530    1521.527
  O     -505.657    -894.870    1522.574
  H     -510.177    -896.160    1519.373
  H     -505.047    -894.240    1523.002
  H     -508.716    -898.870    1523.882
  H     -507.416    -898.270    1521.815
  H     -508.814    -898.830    1518.465
  H     -508.032    -896.300    1520.032
  H     -506.793    -895.680    1517.979
  H     -505.694    -898.250    1517.750
  H     -512.258    -900.000    1523.571
  H     -504.545    -897.930    1519.990
  H     -510.977    -899.670    1524.713
  H     -504.414    -896.510    1518.894
  P     -507.748    -896.190    1515.494
  C     -505.504    -896.730    1514.301
  O     -506.931    -896.850    1514.277
  O     -507.375    -894.750    1515.756
  O     -509.279    -896.280    1515.000
  H     -509.553    -895.440    1514.602
  H     -505.091    -897.210    1513.438
  H     -505.122    -897.195    1515.185
  H     -505.233    -895.695    1514.297

 6  7  8  9  10  11  12  13  14  15  16  26  30  31  32  33  35 0
 6-311+G(2d,p)
 ****
 37  38 0
 6-311+G(2d,p)
 ****
 1  2  3  4  5  17  18  19  20  21  22  23  24  25 0
 3-21G
 ****
 27  28  29  34  36  39  40  41  42  43  44  45  46 0
 3-21G
 ****


