%nproc=1
%NoSave
%Mem=1900MB
#P OB98/GEN NMR

erre ene a

0 1
  C      -65.702      50.684     -24.650
  O      -65.109      50.484     -23.381
  H      -66.723      50.294     -24.621
  H      -65.144      50.148     -25.422
  H      -65.742      51.749     -24.888
  P      -63.586      50.935     -23.172
  C      -64.527      52.986     -21.914
  O      -63.622      52.517     -22.906
  C      -63.803      53.895     -20.924
  O      -63.262      55.046     -21.601
  C      -64.690      54.434     -19.803
  O      -64.838      53.470     -18.775
  C      -63.876      55.638     -19.360
  O      -62.762      55.201     -18.557
  C      -63.368      56.188     -20.706
  N      -65.151      60.933     -20.445
  C      -64.383      60.224     -19.541
  N      -64.072      60.860     -18.390
  N      -63.969      59.000     -19.740
  C      -64.414      58.466     -20.901
  C      -65.193      59.062     -21.868
  C      -65.588      60.439     -21.665
  O      -66.249      61.112     -22.453
  N      -65.522      58.176     -22.864
  C      -64.898      57.064     -22.526
  N      -64.218      57.185     -21.336
  O      -62.624      50.522     -24.244
  O      -63.189      50.334     -21.743
  H      -63.125      54.659     -17.832
  H      -62.786      49.450     -21.832
  H      -65.447      61.871     -20.233
  H      -64.901      56.148     -23.104
  H      -62.370      56.632     -20.619
  H      -64.452      56.342     -18.757
  H      -64.484      61.740     -18.115
  H      -65.656      54.779     -20.186
  H      -63.560      60.335     -17.691
  H      -62.953      53.335     -20.514
  H      -64.934      52.109     -21.400
  H      -65.353      53.533     -22.378
  P      -66.072      53.521     -17.746
  C      -67.547      51.983     -19.213
  O      -67.379      53.268     -18.640
  O      -66.126      54.741     -16.894
  O      -65.960      52.154     -16.928
  H      -65.343      52.216     -16.156
  H      -68.455      51.960     -19.778
  H      -67.592      51.249     -18.436
  H      -66.720      51.769     -19.858

 6  7  8  9  10  11  12  13  14  15  26  29  33  34 0
 6-311+G(2d,p)
 ****
 36  38  39  40  41 0
 6-311+G(2d,p)
 ****
 1  2  3  4  5  16  17  18  19  20  21  22  23  24  25 0
 3-21G
 ****
 27  28  30  31  32  35  37  42  43  44  45  46  47 0
 3-21G
 ****
 48  49 0
 3-21G
 ****


