%nproc=1
%NoSave
%Mem=1900MB
#P OB98/GEN NMR

erre ene a

0 1
  C      -37.110     758.411     -20.184
  O      -38.427     758.192     -19.717
  P      -39.083     756.745     -19.989
  C      -40.975     757.350     -21.668
  O      -40.627     757.005     -20.330
  C      -42.307     758.097     -21.685
  O      -43.397     757.216     -21.357
  C      -42.397     759.239     -20.681
  O      -41.762     760.420     -21.144
  C      -43.903     759.441     -20.604
  O      -44.354     760.216     -21.726
  C      -44.425     757.997     -20.701
  N      -47.762     757.868     -16.904
  C      -47.881     758.428     -18.154
  N      -49.021     759.090     -18.417
  N      -46.959     758.335     -19.084
  C      -45.862     757.643     -18.678
  C      -45.629     757.046     -17.454
  C      -46.658     757.164     -16.440
  O      -46.587     756.742     -15.298
  N      -44.402     756.432     -17.420
  C      -43.897     756.658     -18.619
  N      -44.719     757.424     -19.402
  O      -39.134     756.086     -18.528
  O      -38.337     755.892     -20.962
  H      -45.331     760.282     -21.643
  H      -39.258     755.120     -18.602
  H      -48.502     757.970     -16.221
  H      -42.928     756.296     -18.954
  H      -45.327     757.932     -21.314
  H      -44.211     759.976     -19.699
  H      -49.748     759.251     -17.728
  H      -42.016     758.938     -19.698
  H      -49.115     759.562     -19.311
  H      -42.470     758.473     -22.711
  H      -41.055     756.438     -22.270
  H      -40.183     757.971     -22.097
  P      -40.314     760.749     -20.540
  C      -40.987     763.241     -20.241
  O      -40.078     762.311     -20.810
  O      -39.320     760.031     -21.578
  O      -40.105     760.279     -19.141
  H      -38.481     759.798     -21.140
  H      -40.534     764.245     -20.301
  H      -41.195     763.005     -19.194
  H      -41.925     763.239     -20.810
  H      -36.805     759.406     -19.936
  H      -37.082     758.283     -21.246
  H      -36.447     757.709     -19.723

 3  4  5  6  7  8  9  10  11  12  23  26  30  31 0
 6-311+G(2d,p)
 ****
 33  35  36  37  38 0
 6-311+G(2d,p)
 ****
 1  2  13  14  15  16  17  18  19  20  21  22  24  25 0
 3-21G
 ****
 27  28  29  32  34  39  40  41  42  43  44  45  46  47  48  49 0
 3-21G
 ****


