%nproc=1
%NoSave
%Mem=1900MB
#P OB98/GEN NMR

erre ene a

0 1
  C       40.687     558.651     362.876
  O       41.440     557.458     362.795
  P       41.098     556.441     361.593
  C       39.763     554.250     362.110
  O       39.759     555.669     361.992
  C       40.188     553.844     363.512
  O       39.453     554.612     364.511
  C       39.894     552.384     363.845
  O       40.872     551.528     363.285
  C       39.906     552.401     365.373
  O       41.252     552.310     365.878
  C       39.301     553.790     365.681
  N       37.911     553.702     366.110
  C       37.682     553.070     367.338
  O       38.590     552.603     368.023
  N       36.381     552.993     367.735
  C       35.298     553.408     367.030
  O       34.128     553.256     367.397
  C       35.594     554.026     365.706
  C       36.852     554.141     365.323
  O       42.236     555.316     361.713
  O       41.082     557.070     360.239
  H       41.531     551.369     365.751
  H       42.490     555.000     360.823
  H       36.205     552.567     368.627
  H       34.744     554.375     365.125
  H       37.100     554.588     364.362
  H       39.885     554.284     366.482
  H       39.353     551.554     365.796
  H       38.893     552.106     363.505
  H       41.263     554.072     363.635
  H       40.479     553.837     361.363
  H       38.773     553.875     361.872
  P       40.537     549.951     363.225
  C       41.739     548.473     365.030
  O       40.747     549.435     364.737
  O       41.797     549.407     362.411
  O       39.205     549.663     362.599
  H       42.605     549.913     362.572
  H       42.620     548.607     364.392
  H       41.333     547.472     364.859
  H       42.026     548.569     366.074
  H       41.019     559.226     363.715
  H       39.651     558.411     362.995
  H       40.821     559.219     361.979

 3  4  5  6  7  8  9  10  11  12  13  23  28  29  30  31  32 0
 6-311+G(2d,p)
 ****
 33  34 0
 6-311+G(2d,p)
 ****
 1  2  14  15  16  17  18  19  20  21  22  24  25  26 0
 3-21G
 ****
 27  35  36  37  38  39  40  41  42  43  44  45 0
 3-21G
 ****


