%nproc=1
%NoSave
%Mem=1900MB
#P OB98/GEN NMR

erre ene a

0 1
  C     1056.850     586.266    -541.197
  O     1056.381     585.645    -542.389
  P     1056.930     586.222    -543.795
  C     1057.505     583.786    -544.495
  O     1056.865     585.009    -544.832
  C     1057.743     582.937    -545.756
  O     1056.472     582.381    -546.188
  C     1058.333     583.702    -546.955
  O     1059.166     582.781    -547.668
  C     1057.116     584.049    -547.779
  O     1057.429     584.338    -549.131
  C     1056.257     582.807    -547.552
  N     1051.910     580.933    -549.326
  C     1053.166     580.373    -549.350
  N     1053.268     579.138    -549.854
  N     1054.237     581.003    -548.906
  C     1053.969     582.228    -548.400
  C     1052.763     582.887    -548.361
  C     1051.590     582.190    -548.817
  O     1050.428     582.594    -548.749
  N     1052.911     584.175    -547.858
  C     1054.183     584.233    -547.524
  N     1054.851     583.072    -547.798
  O     1058.488     586.417    -543.515
  O     1056.245     587.471    -544.278
  H     1058.295     584.776    -549.161
  H     1058.677     587.337    -543.230
  H     1051.115     580.401    -549.658
  H     1054.669     585.101    -547.085
  H     1056.557     581.972    -548.231
  H     1056.620     584.937    -547.349
  H     1052.498     578.596    -550.192
  H     1058.917     584.587    -546.647
  H     1054.199     578.703    -549.870
  H     1058.396     582.095    -545.477
  H     1056.852     583.212    -543.821
  H     1058.456     583.989    -543.982
  P     1060.524     583.332    -548.306
  C     1061.816     581.143    -547.861
  O     1061.371     582.085    -548.818
  O     1061.346     583.854    -547.047
  O     1060.328     584.444    -549.306
  H     1061.891     584.619    -547.297
  H     1062.009     580.183    -548.349
  H     1061.083     580.981    -547.079
  H     1062.753     581.500    -547.405
  H     1056.409     585.787    -540.348
  H     1056.579     587.301    -541.204
  H     1057.915     586.177    -541.143

 3  4  5  6  7  8  9  10  11  12  23  26  30  31 0
 6-311+G(2d,p)
 ****
 33  35  36  37  38 0
 6-311+G(2d,p)
 ****
 1  2  13  14  15  16  17  18  19  20  21  22  24  25 0
 3-21G
 ****
 27  28  29  32  34  39  40  41  42  43  44  45  46  47  48  49 0
 3-21G
 ****


