%nproc=1
%NoSave
%Mem=1900MB
#P OB98/GEN NMR

erre ene a

0 1
  C      600.058     164.021    -205.011
  O      599.194     163.093    -204.386
  H      600.465     163.599    -205.933
  H      599.487     164.922    -205.253
  H      600.874     164.291    -204.334
  P      599.820     161.657    -204.044
  C      599.657     160.028    -202.029
  O      599.094     161.146    -202.701
  C      598.584     158.978    -201.772
  O      597.592     159.484    -200.853
  C      597.799     158.543    -203.009
  O      598.528     157.616    -203.804
  C      596.587     157.899    -202.361
  O      596.916     156.563    -201.939
  C      596.352     158.793    -201.129
  N      591.492     159.558    -202.618
  C      592.253     158.438    -202.562
  N      593.533     158.315    -202.167
  C      594.040     159.503    -201.786
  C      593.388     160.719    -201.793
  C      592.054     160.732    -202.237
  N      591.296     161.875    -202.312
  N      594.217     161.716    -201.322
  C      595.352     161.112    -201.033
  N      595.297     159.770    -201.309
  O      601.307     162.004    -203.550
  O      599.834     160.680    -205.172
  H      597.029     156.035    -202.753
  H      601.914     161.295    -203.844
  H      591.764     157.520    -202.866
  H      596.231     161.601    -200.632
  H      596.115     158.197    -200.237
  H      595.730     157.832    -203.029
  H      597.481     159.413    -203.596
  H      599.070     158.110    -201.299
  H      600.079     160.354    -201.076
  H      590.302     161.792    -202.444
  H      591.724     162.753    -202.016
  H      600.458     159.612    -202.653
  P      597.937     157.256    -205.250
  C      598.865     157.347    -207.672
  O      599.101     157.611    -206.294
  O      596.859     158.420    -205.499
  O      597.327     155.897    -205.373
  H      596.170     158.108    -206.125
  H      599.724     157.633    -208.242
  H      598.015     157.907    -208.002
  H      598.678     156.302    -207.808

 6  7  8  9  10  11  12  13  14  15  25  28  32  33  34  35 0
 6-311+G(2d,p)
 ****
 36  39  40 0
 6-311+G(2d,p)
 ****
 1  2  3  4  5  16  17  18  19  20  21  22  23  24 0
 3-21G
 ****
 26  27  29  30  31  37  38  41  42  43  44  45  46  47  48 0
 3-21G
 ****


