%nproc=1
%NoSave
%Mem=1900MB
#P OB98/GEN NMR

erre ene a

0 1
  C     -235.390     787.300    1008.297
  O     -234.482     787.803    1009.262
  H     -235.917     786.445    1008.723
  H     -234.851     786.975    1007.404
  H     -236.115     788.070    1008.034
  P     -233.526     789.005    1008.797
  C     -235.494     790.535    1009.531
  O     -234.461     790.287    1008.584
  C     -235.414     791.984    1010.015
  O     -234.286     792.129    1010.918
  C     -235.159     792.998    1008.900
  O     -236.334     793.313    1008.174
  C     -234.639     794.178    1009.705
  O     -235.714     794.975    1010.227
  C     -233.845     793.500    1010.824
  N     -232.404     793.589    1010.606
  C     -231.704     794.404    1011.504
  O     -232.252     795.010    1012.425
  N     -230.366     794.532    1011.282
  C     -229.672     793.977    1010.242
  O     -228.475     794.182    1010.060
  C     -230.458     793.142    1009.312
  C     -231.769     792.999    1009.529
  O     -233.107     788.586    1007.313
  O     -232.339     789.237    1009.675
  H     -232.177     788.282    1007.310
  H     -235.296     795.709    1010.709
  H     -229.844     795.113    1011.921
  H     -229.938     792.690    1008.478
  H     -232.371     792.398    1008.865
  H     -234.073     793.972    1011.798
  H     -234.039     794.828    1009.077
  H     -234.366     792.644    1008.235
  H     -236.323     792.230    1010.556
  H     -235.384     789.873    1010.385
  H     -236.466     790.336    1009.054
  P     -236.158     793.969    1006.716
  C     -235.866     791.714    1005.362
  O     -235.288     792.909    1005.870
  O     -235.157     795.167    1007.041
  O     -237.451     794.385    1006.104
  H     -234.603     794.966    1007.824
  H     -235.122     791.154    1004.834
  H     -236.667     791.960    1004.696
  H     -236.244     791.128    1006.173

 6  7  8  9  10  11  12  13  14  15  16  27  31  32  33  34  35 0
 6-311+G(2d,p)
 ****
 36  37 0
 6-311+G(2d,p)
 ****
 1  2  3  4  5  17  18  19  20  21  22  23  24  25 0
 3-21G
 ****
 26  28  29  30  38  39  40  41  42  43  44  45 0
 3-21G
 ****


