%nproc=1
%NoSave
%Mem=1900MB
#P OB98/GEN NMR

erre ene a

0 1
  C      589.143     365.757      71.836
  O      589.173     366.882      70.958
  P      588.135     366.936      69.734
  C      587.295     369.354      70.017
  O      586.969     367.970      70.113
  C      586.071     370.219      70.329
  O      585.222     370.376      69.175
  C      585.176     369.634      71.407
  O      585.760     369.786      72.691
  C      583.887     370.413      71.183
  O      583.945     371.698      71.818
  C      583.877     370.582      69.649
  N      582.933     369.690      68.980
  C      581.586     369.862      69.317
  O      581.255     370.696      70.160
  N      580.652     369.071      68.695
  C      581.025     368.184      67.829
  N      580.061     367.429      67.241
  C      582.442     367.964      67.457
  C      583.332     368.739      68.073
  O      587.671     365.612      69.223
  O      588.956     367.735      68.611
  H      584.858     372.024      71.682
  H      588.658     367.430      67.728
  H      582.707     367.215      66.725
  H      584.392     368.643      67.862
  H      583.606     371.611      69.381
  H      583.021     369.888      71.595
  H      585.004     368.566      71.206
  H      586.427     371.213      70.640
  H      579.101     367.590      67.523
  H      587.662     369.576      69.017
  H      580.250     366.750      66.519
  H      588.115     369.568      70.711
  P      586.420     368.493      73.367
  C      588.810     369.453      73.074
  O      587.924     368.375      72.835
  O      585.669     367.280      72.631
  O      586.253     368.411      74.850
  H      585.560     366.539      73.253
  H      589.836     369.097      72.942
  H      588.698     369.845      74.086
  H      588.619     370.250      72.347
  H      589.891     365.874      72.592
  H      589.336     364.864      71.279
  H      588.179     365.689      72.296

 3  4  5  6  7  8  9  10  11  12  13  23  27  28  29  30  32 0
 6-311+G(2d,p)
 ****
 34  35 0
 6-311+G(2d,p)
 ****
 1  2  14  15  16  17  18  19  20  21  22  24  25  26 0
 3-21G
 ****
 31  33  36  37  38  39  40  41  42  43  44  45  46 0
 3-21G
 ****


