%nproc=1
%NoSave
%Mem=1900MB
#P OB98/GEN NMR

erre ene a

0 1
  C      862.750     684.540     771.312
  O      862.332     683.253     771.797
  P      863.373     682.123     772.286
  C      863.952     681.494     769.856
  O      863.537     681.031     771.133
  C      864.876     680.487     769.159
  O      866.135     680.390     769.863
  C      864.344     679.074     769.085
  O      863.331     678.951     768.090
  C      865.625     678.288     768.818
  O      865.948     678.317     767.408
  C      866.662     679.068     769.630
  N      866.985     678.405     770.891
  C      867.853     677.308     770.803
  O      868.256     676.910     769.706
  N      868.222     676.674     771.971
  C      867.709     677.046     773.105
  N      868.125     676.387     774.211
  C      866.731     678.138     773.217
  C      866.425     678.768     772.088
  O      863.044     681.560     773.640
  O      864.799     682.856     772.316
  H      866.242     679.223     767.201
  H      865.337     682.465     773.028
  H      866.302     678.408     774.184
  H      865.706     679.589     772.090
  H      867.591     679.195     769.057
  H      865.540     677.230     769.091
  H      863.938     678.776     770.060
  H      865.087     680.878     768.151
  H      868.804     675.648     774.105
  H      864.480     682.443     769.991
  H      867.788     676.605     775.142
  H      863.060     681.676     769.246
  P      861.824     679.339     768.434
  C      861.530     677.507     770.216
  O      861.095     678.019     768.970
  O      861.085     680.094     767.380
  O      861.963     680.220     769.774
  H      861.241     680.881     769.797
  H      860.737     676.885     770.629
  H      861.776     678.306     770.912
  H      862.426     676.886     770.048
  H      861.889     685.118     771.047
  H      863.372     684.412     770.451
  H      863.299     685.048     772.077

 3  4  5  6  7  8  9  10  11  12  13  23  27  28  29  30  32 0
 6-311+G(2d,p)
 ****
 34  35 0
 6-311+G(2d,p)
 ****
 1  2  14  15  16  17  18  19  20  21  22  24  25  26 0
 3-21G
 ****
 31  33  36  37  38  39  40  41  42  43  44  45  46 0
 3-21G
 ****


