%nproc=1
%NoSave
%Mem=1900MB
#P OB98/GEN NMR

erre ene a

0 1
  C     -111.481     195.057      34.436
  O     -111.355     194.330      35.660
  P     -111.345     195.122      37.050
  C     -108.805     195.608      36.961
  O     -109.881     195.038      37.697
  C     -107.763     196.191      37.919
  O     -108.308     197.288      38.691
  C     -107.287     195.187      38.960
  O     -106.491     194.116      38.494
  C     -106.688     196.085      40.027
  O     -105.350     196.465      39.706
  C     -107.629     197.313      39.965
  N     -108.583     197.348      41.075
  C     -108.120     197.912      42.258
  O     -106.971     198.323      42.409
  N     -109.020     197.957      43.289
  C     -110.296     197.471      43.261
  O     -111.053     197.516      44.222
  C     -110.719     196.865      41.990
  C     -109.858     196.830      40.971
  O     -112.472     194.817      37.978
  O     -111.419     196.659      36.577
  H     -105.066     197.123      40.371
  H     -112.024     197.128      37.183
  H     -108.705     198.371      44.153
  H     -111.722     196.463      41.933
  H     -110.151     196.388      40.024
  H     -107.048     198.241      39.993
  H     -106.654     195.588      41.001
  H     -108.176     194.718      39.405
  H     -106.931     196.584      37.330
  H     -109.185     196.384      36.293
  H     -108.366     194.836      36.317
  P     -107.099     192.810      37.791
  C     -105.780     191.276      39.414
  O     -106.114     191.579      38.076
  O     -107.622     192.960      36.402
  O     -108.333     192.472      38.767
  H     -109.050     192.082      38.231
  H     -105.092     190.426      39.418
  H     -106.674     191.006      39.981
  H     -105.282     192.129      39.884
  H     -111.469     194.374      33.613
  H     -110.665     195.742      34.343
  H     -112.403     195.599      34.437

 3  4  5  6  7  8  9  10  11  12  13  23  28  29  30  31  32 0
 6-311+G(2d,p)
 ****
 33  34 0
 6-311+G(2d,p)
 ****
 1  2  14  15  16  17  18  19  20  21  22  24  25  26  27 0
 3-21G
 ****
 35  36  37  38  39  40  41  42  43  44  45 0
 3-21G
 ****


