%nproc=1
%NoSave
%Mem=1900MB
#P OB98/GEN NMR

erre ene a

0 1
  C     -175.407     193.876     229.945
  O     -175.265     195.276     229.821
  H     -174.415     193.430     230.035
  H     -175.893     193.468     229.055
  H     -175.988     193.620     230.835
  P     -176.577     196.194     229.876
  C     -176.050     196.495     232.383
  O     -177.051     196.234     231.407
  C     -176.699     196.960     233.684
  O     -175.731     196.954     234.754
  C     -177.247     198.382     233.629
  O     -178.464     198.428     232.912
  C     -177.367     198.693     235.115
  O     -178.559     198.113     235.665
  C     -176.102     197.997     235.678
  N     -174.990     198.921     235.901
  C     -174.407     198.891     237.167
  O     -174.811     198.167     238.076
  N     -173.349     199.739     237.354
  C     -172.884     200.652     236.453
  O     -171.964     201.432     236.692
  C     -173.559     200.663     235.147
  C     -174.564     199.810     234.935
  O     -177.653     195.853     228.896
  O     -176.012     197.673     229.636
  H     -178.490     197.147     235.529
  H     -176.158     197.936     228.708
  H     -172.922     199.742     238.266
  H     -173.222     201.377     234.409
  H     -175.080     199.804     233.980
  H     -176.336     197.505     236.633
  H     -177.416     199.763     235.318
  H     -176.506     199.058     233.189
  H     -177.492     196.247     233.943
  H     -175.386     197.281     232.004
  H     -175.467     195.583     232.544
  P     -179.360     199.754     232.906
  C     -178.135     200.991     231.029
  O     -178.427     200.967     232.421
  O     -180.117     200.018     234.166
  O     -180.354     199.545     231.671
  H     -181.253     199.334     231.999
  H     -177.511     201.832     230.810
  H     -179.047     201.069     230.475
  H     -177.627     200.090     230.755

 6  7  8  9  10  11  12  13  14  15  16  26  31  32  33  34  35 0
 6-311+G(2d,p)
 ****
 36  37 0
 6-311+G(2d,p)
 ****
 1  2  3  4  5  17  18  19  20  21  22  23  24  25 0
 3-21G
 ****
 27  28  29  30  38  39  40  41  42  43  44  45 0
 3-21G
 ****


