%nproc=1
%NoSave
%Mem=1900MB
#P OB98/GEN NMR

erre ene a

0 1
  C     1060.269     349.685    1162.009
  O     1060.325     348.711    1160.978
  P     1059.386     347.414    1161.123
  C     1060.690     346.245    1163.061
  O     1060.332     346.239    1161.673
  C     1061.600     345.057    1163.362
  O     1060.905     343.816    1163.129
  C     1062.854     344.975    1162.508
  O     1063.884     345.844    1162.972
  C     1063.256     343.536    1162.703
  O     1063.947     343.362    1163.952
  C     1061.897     342.825    1162.735
  N     1062.157     338.692    1159.822
  C     1062.494     338.860    1161.156
  N     1063.012     337.787    1161.787
  N     1062.315     339.974    1161.818
  C     1061.774     340.974    1161.057
  C     1061.393     340.928    1159.725
  C     1061.620     339.693    1159.018
  O     1061.398     339.498    1157.823
  N     1060.896     342.121    1159.313
  C     1060.941     342.900    1160.381
  N     1061.517     342.251    1161.454
  O     1059.104     346.983    1159.611
  O     1058.125     347.647    1161.876
  H     1064.776     343.865    1163.883
  H     1058.345     346.388    1159.569
  H     1062.315     337.813    1159.359
  H     1060.620     343.922    1160.432
  H     1061.867     342.015    1163.486
  H     1063.936     343.165    1161.917
  H     1063.227     336.921    1161.305
  H     1062.615     345.165    1161.449
  H     1063.324     337.886    1162.739
  H     1061.870     345.114    1164.438
  H     1059.782     346.179    1163.663
  H     1061.194     347.188    1163.291
  P     1064.387     346.985    1161.954
  C     1065.363     345.535    1160.034
  O     1065.612     346.340    1161.162
  O     1065.072     348.068    1162.937
  O     1063.297     347.594    1161.117
  H     1065.039     348.957    1162.529
  H     1066.286     345.401    1159.479
  H     1064.619     346.008    1159.376
  H     1064.987     344.553    1160.354
  H     1060.941     350.485    1161.780
  H     1060.551     349.237    1162.939
  H     1059.272     350.067    1162.085

 3  4  5  6  7  8  9  10  11  12  23  26  30  31 0
 6-311+G(2d,p)
 ****
 33  35  36  37  38 0
 6-311+G(2d,p)
 ****
 1  2  13  14  15  16  17  18  19  20  21  22  24  25 0
 3-21G
 ****
 27  28  29  32  34  39  40  41  42  43  44  45  46  47  48  49 0
 3-21G
 ****


