%nproc=1
%NoSave
%Mem=1900MB
#P OB98/GEN NMR

erre ene a

0 1
  C     -188.067      58.558    -175.150
  O     -186.790      58.063    -174.742
  P     -186.579      57.615    -173.216
  C     -186.206      58.714    -170.923
  O     -186.291      58.921    -172.327
  C     -186.468      60.001    -170.126
  O     -185.604      61.077    -170.581
  C     -187.914      60.511    -170.211
  O     -188.234      61.078    -168.934
  C     -187.812      61.594    -171.268
  O     -188.911      62.492    -171.233
  C     -186.449      62.196    -170.917
  N     -185.890      62.985    -172.002
  C     -186.304      64.313    -172.105
  O     -187.185      64.744    -171.360
  N     -185.729      65.108    -173.067
  C     -184.931      64.579    -173.942
  N     -184.367      65.401    -174.867
  C     -184.614      63.139    -173.973
  C     -185.102      62.415    -172.970
  O     -185.627      56.486    -173.005
  O     -188.064      57.203    -172.760
  H     -188.999      62.924    -172.108
  H     -188.005      56.459    -172.131
  H     -184.008      62.727    -174.770
  H     -184.918      61.351    -172.900
  H     -186.520      62.830    -170.024
  H     -187.785      61.135    -172.262
  H     -188.639      59.727    -170.447
  H     -186.212      59.801    -169.077
  H     -184.613      66.383    -174.849
  H     -185.208      58.338    -170.678
  H     -183.695      65.074    -175.549
  H     -186.907      57.924    -170.636
  P     -189.103      60.214    -167.898
  C     -191.567      59.402    -167.736
  O     -190.607      60.155    -168.446
  O     -189.242      61.231    -166.662
  O     -188.493      58.930    -167.437
  H     -189.393      60.718    -165.847
  H     -192.566      59.697    -168.076
  H     -191.501      59.586    -166.659
  H     -191.426      58.336    -167.936
  H     -188.036      58.810    -176.190
  H     -188.311      59.430    -174.579
  H     -188.810      57.805    -174.987

 3  4  5  6  7  8  9  10  11  12  13  23  27  28  29  30  32 0
 6-311+G(2d,p)
 ****
 34  35 0
 6-311+G(2d,p)
 ****
 1  2  14  15  16  17  18  19  20  21  22  24  25  26 0
 3-21G
 ****
 31  33  36  37  38  39  40  41  42  43  44  45  46 0
 3-21G
 ****


