%nproc=1
%NoSave
%Mem=1900MB
#P OB98/GEN NMR

erre ene a

0 1
  C     -215.641     -48.536     116.784
  O     -215.827     -49.076     115.491
  H     -214.607     -48.192     116.873
  H     -215.826     -49.290     117.554
  H     -216.306     -47.681     116.933
  P     -217.186     -49.881     115.197
  C     -218.873     -49.972     113.243
  O     -217.655     -49.413     113.733
  C     -219.728     -48.905     112.554
  O     -220.099     -47.880     113.499
  C     -219.007     -48.172     111.435
  O     -218.753     -48.965     110.295
  C     -219.828     -46.898     111.296
  O     -220.957     -47.041     110.439
  C     -220.302     -46.663     112.751
  N     -219.631     -45.528     113.370
  C     -219.875     -44.289     112.785
  O     -220.590     -44.134     111.794
  N     -219.233     -43.224     113.353
  C     -218.350     -43.285     114.392
  O     -217.773     -42.297     114.830
  C     -218.111     -44.626     114.953
  C     -218.753     -45.670     114.424
  O     -218.254     -49.759     116.243
  O     -216.694     -51.383     114.955
  H     -221.415     -46.177     110.424
  H     -217.444     -52.020     115.027
  H     -219.405     -42.317     112.950
  H     -217.416     -44.712     115.777
  H     -218.593     -46.671     114.819
  H     -221.382     -46.467     112.770
  H     -219.227     -46.076     110.899
  H     -218.023     -47.863     111.809
  H     -220.646     -49.381     112.190
  H     -219.423     -50.375     114.101
  H     -218.650     -50.789     112.550
  P     -217.801     -48.503     109.098
  C     -216.125     -49.625     107.459
  O     -216.962     -49.780     108.599
  O     -217.087     -47.200     109.271
  O     -218.868     -48.310     107.901
  H     -218.556     -47.570     107.347
  H     -215.634     -50.552     107.248
  H     -215.392     -48.870     107.654
  H     -216.719     -49.336     106.617

 6  7  8  9  10  11  12  13  14  15  16  26  31  32  33  34  35 0
 6-311+G(2d,p)
 ****
 36  37 0
 6-311+G(2d,p)
 ****
 1  2  3  4  5  17  18  19  20  21  22  23  24  25 0
 3-21G
 ****
 27  28  29  30  38  39  40  41  42  43  44  45 0
 3-21G
 ****


