%nproc=1
%NoSave
%Mem=1900MB
#P OB98/GEN NMR

erre ene a

0 1
  C     -147.417    -306.588    -290.772
  O     -146.937    -307.587    -291.650
  H     -148.099    -305.935    -291.320
  H     -146.583    -305.990    -290.394
  H     -147.956    -307.042    -289.936
  P     -146.004    -308.726    -291.019
  C     -146.911    -310.985    -291.945
  O     -145.974    -309.927    -292.085
  C     -148.123    -310.728    -292.839
  O     -147.679    -310.686    -294.222
  C     -149.198    -311.817    -292.735
  O     -150.488    -311.211    -292.841
  C     -148.934    -312.683    -293.954
  O     -150.064    -313.428    -294.382
  C     -148.477    -311.629    -294.967
  N     -147.709    -312.203    -296.069
  C     -148.301    -312.213    -297.327
  O     -149.392    -311.707    -297.594
  N     -147.584    -312.844    -298.312
  C     -146.381    -313.469    -298.160
  O     -145.801    -314.037    -299.077
  C     -145.810    -313.432    -296.806
  C     -146.489    -312.814    -295.838
  O     -146.898    -309.319    -289.829
  O     -144.659    -308.278    -290.557
  H     -146.722    -308.837    -288.999
  H     -150.413    -313.919    -293.611
  H     -148.000    -312.858    -299.232
  H     -144.861    -313.926    -296.646
  H     -146.103    -312.780    -294.825
  H     -149.343    -311.082    -295.366
  H     -148.123    -313.391    -293.740
  H     -149.133    -312.390    -291.808
  H     -148.537    -309.739    -292.602
  H     -147.237    -311.041    -290.901
  H     -146.431    -311.931    -292.219
  P     -151.618    -311.694    -291.805
  C     -153.333    -309.722    -291.888
  O     -152.990    -311.029    -292.311
  O     -151.228    -310.857    -290.502
  O     -151.649    -313.173    -291.625
  H     -150.901    -309.961    -290.697
  H     -154.272    -309.443    -292.319
  H     -152.577    -309.035    -292.205
  H     -153.410    -309.701    -290.821

 6  7  8  9  10  11  12  13  14  15  16  27  31  32  33  34  35 0
 6-311+G(2d,p)
 ****
 36  37 0
 6-311+G(2d,p)
 ****
 1  2  3  4  5  17  18  19  20  21  22  23  24  25 0
 3-21G
 ****
 26  28  29  30  38  39  40  41  42  43  44  45 0
 3-21G
 ****


