%nproc=1
%NoSave
%Mem=1900MB
#P OB98/GEN NMR

erre ene a

0 1
  C      155.605    -413.327     -43.950
  O      154.287    -413.679     -44.321
  H      155.729    -413.528     -42.882
  H      155.775    -412.262     -44.123
  H      156.336    -413.920     -44.505
  P      153.865    -413.575     -45.865
  C      153.419    -415.293     -47.725
  O      153.434    -415.052     -46.327
  C      153.159    -416.770     -48.013
  O      154.325    -417.534     -47.615
  C      151.945    -417.339     -47.268
  O      151.280    -418.264     -48.128
  C      152.567    -418.084     -46.102
  O      151.740    -419.146     -45.633
  C      153.891    -418.560     -46.702
  N      155.620    -421.920     -43.351
  C      154.627    -422.042     -44.304
  N      153.980    -423.226     -44.362
  N      154.297    -421.084     -45.131
  C      155.036    -419.960     -44.971
  C      156.041    -419.716     -44.065
  C      156.391    -420.781     -43.147
  O      157.246    -420.727     -42.272
  N      156.532    -418.438     -44.198
  C      155.822    -417.914     -45.179
  N      154.895    -418.793     -45.676
  O      154.866    -412.917     -46.760
  O      152.479    -412.781     -45.837
  H      152.234    -419.604     -44.920
  H      152.614    -411.841     -46.063
  H      155.828    -422.689     -42.734
  H      155.933    -416.909     -45.564
  H      153.781    -419.499     -47.259
  H      152.742    -417.390     -45.270
  H      154.192    -424.014     -43.768
  H      151.248    -416.565     -46.938
  H      153.264    -423.345     -45.069
  H      153.050    -416.898     -49.096
  H      154.392    -415.003     -48.135
  H      152.642    -414.676     -48.192
  P      150.011    -417.760     -48.968
  C      149.089    -418.353     -51.299
  O      149.706    -418.842     -50.114
  O      150.064    -416.341     -49.429
  O      148.796    -417.991     -47.944
  H      148.103    -417.322     -48.125
  H      148.938    -419.162     -51.982
  H      149.720    -417.617     -51.752
  H      148.145    -417.912     -51.054

 6  7  8  9  10  11  12  13  14  15  26  29  33  34 0
 6-311+G(2d,p)
 ****
 36  38  39  40  41 0
 6-311+G(2d,p)
 ****
 1  2  3  4  5  16  17  18  19  20  21  22  23  24  25 0
 3-21G
 ****
 27  28  30  31  32  35  37  42  43  44  45  46  47 0
 3-21G
 ****
 48  49 0
 3-21G
 ****


