%nproc=1
%NoSave
%Mem=1900MB
#P OB98/GEN NMR

erre ene a

0 1
  C     -390.078    -312.730     -11.504
  O     -388.832    -313.246     -11.939
  H     -390.576    -312.252     -12.349
  H     -389.921    -311.984     -10.716
  H     -390.711    -313.539     -11.131
  P     -387.917    -313.939     -10.817
  C     -388.331    -316.315     -11.771
  O     -388.459    -315.442     -10.657
  C     -387.417    -317.487     -11.426
  O     -387.674    -317.962     -10.086
  C     -387.562    -318.688     -12.352
  O     -386.786    -318.518     -13.529
  C     -387.044    -319.814     -11.465
  O     -385.599    -319.835     -11.449
  C     -387.594    -319.414     -10.090
  N     -389.952    -323.398      -8.067
  C     -388.611    -323.187      -8.309
  N     -387.768    -324.194      -7.991
  N     -388.131    -322.083      -8.831
  C     -389.087    -321.186      -9.151
  C     -390.450    -321.279      -8.963
  C     -390.963    -322.481      -8.337
  O     -392.128    -322.692      -8.023
  N     -391.095    -320.148      -9.405
  C     -390.124    -319.390      -9.888
  N     -388.894    -319.980      -9.761
  O     -388.390    -313.231      -9.459
  O     -386.447    -313.799     -11.013
  H     -385.297    -320.523     -10.831
  H     -387.610    -313.097      -8.886
  H     -390.263    -324.249      -7.633
  H     -390.262    -318.405     -10.329
  H     -386.914    -319.702      -9.278
  H     -387.364    -320.794     -11.826
  H     -388.095    -325.144      -7.870
  H     -388.616    -318.878     -12.597
  H     -386.793    -324.064      -8.235
  H     -386.384    -317.113     -11.441
  H     -387.905    -315.756     -12.612
  H     -389.320    -316.691     -12.053
  P     -387.151    -319.410     -14.811
  C     -388.881    -317.700     -15.728
  O     -388.641    -319.024     -15.276
  O     -387.319    -320.882     -14.190
  O     -386.120    -319.401     -15.890
  H     -386.543    -321.430     -14.418
  H     -389.911    -317.597     -16.000
  H     -388.265    -317.496     -16.579
  H     -388.648    -317.008     -14.946

 6  7  8  9  10  11  12  13  14  15  26  29  33  34 0
 6-311+G(2d,p)
 ****
 36  38  39  40  41 0
 6-311+G(2d,p)
 ****
 1  2  3  4  5  16  17  18  19  20  21  22  23  24  25 0
 3-21G
 ****
 27  28  30  31  32  35  37  42  43  44  45  46  47 0
 3-21G
 ****
 48  49 0
 3-21G
 ****


