%nproc=1
%NoSave
%Mem=1900MB
#P OB98/GEN NMR

erre ene a

0 1
  C      125.518     284.311     600.041
  O      124.155     284.222     600.413
  H      125.932     285.245     600.439
  H      125.619     284.318     598.951
  H      126.085     283.474     600.463
  P      123.323     282.938     599.940
  C      122.234     283.844     597.776
  O      123.252     283.018     598.341
  C      121.477     283.082     596.698
  O      122.367     282.712     595.624
  C      120.831     281.783     597.192
  O      119.610     282.061     597.854
  C      120.648     281.039     595.881
  O      119.525     281.586     595.171
  C      121.958     281.397     595.144
  N      124.970     277.881     593.056
  C      123.908     278.580     592.504
  N      123.566     278.261     591.238
  N      123.216     279.491     593.155
  C      123.628     279.644     594.435
  C      124.654     279.002     595.096
  C      125.436     278.041     594.351
  O      126.400     277.413     594.786
  N      124.726     279.380     596.413
  C      123.766     280.286     596.553
  N      123.056     280.468     595.378
  O      121.988     282.737     600.595
  O      124.317     281.713     600.206
  H      119.701     282.536     595.046
  H      124.171     281.325     601.089
  H      125.441     277.182     592.504
  H      123.543     280.825     597.458
  H      121.824     281.464     594.058
  H      120.481     279.975     596.006
  H      123.861     277.399     590.799
  H      121.521     281.209     597.834
  H      122.759     278.727     590.837
  H      120.722     283.756     596.270
  H      122.739     284.721     597.346
  H      121.543     284.182     598.553
  P      119.040     281.076     599.008
  C      117.786     279.359     597.526
  O      118.954     279.639     598.304
  O      117.785     281.541     599.655
  O      120.269     280.897     600.017
  H      120.306     281.586     600.724
  H      117.858     278.373     597.116
  H      117.708     280.071     596.731
  H      116.919     279.423     598.149

 6  7  8  9  10  11  12  13  14  15  26  29  33  34 0
 6-311+G(2d,p)
 ****
 36  38  39  40  41 0
 6-311+G(2d,p)
 ****
 1  2  3  4  5  16  17  18  19  20  21  22  23  24  25 0
 3-21G
 ****
 27  28  30  31  32  35  37  42  43  44  45  46  47 0
 3-21G
 ****
 48  49 0
 3-21G
 ****


