%nproc=1
%NoSave
%Mem=1900MB
#P OB98/GEN NMR

erre ene a

0 1
  C       34.982      91.922    -100.245
  O       34.405      90.750    -100.789
  P       33.202      90.867    -101.837
  C       30.959      92.127    -101.905
  O       31.949      91.519    -101.076
  C       29.582      91.537    -101.603
  O       29.485      90.191    -102.119
  C       29.268      91.427    -100.116
  O       28.921      92.690     -99.580
  C       28.132      90.410    -100.130
  O       26.883      91.051    -100.446
  C       28.559      89.473    -101.272
  N       28.069      84.397    -101.063
  C       27.220      85.368    -101.464
  N       27.413      86.707    -101.452
  C       28.619      87.005    -100.940
  C       29.576      86.126    -100.461
  C       29.278      84.755    -100.558
  N       30.159      83.755    -100.213
  N       30.678      86.820     -99.990
  C       30.379      88.093    -100.175
  N       29.177      88.250    -100.804
  O       32.896      89.618    -102.600
  O       33.671      92.032    -102.830
  H       26.229      90.350    -100.616
  H       33.740      91.680    -103.738
  H       26.263      85.027    -101.850
  H       31.001      88.926     -99.884
  H       27.709      89.188    -101.906
  H       28.003      89.905     -99.167
  H       30.126      90.998     -99.579
  H       28.827      92.153    -102.114
  H       31.224      91.939    -102.950
  H       29.898      82.810    -100.458
  H       31.146      83.989    -100.128
  H       30.957      93.207    -101.732
  P       29.324      93.050     -98.070
  C       28.841      92.055     -95.755
  O       28.454      92.101     -97.116
  O       29.305      94.504     -97.723
  O       30.799      92.439     -97.918
  H       31.318      92.986     -97.297
  H       29.717      91.409     -95.647
  H       28.018      91.640     -95.168
  H       29.077      93.057     -95.379
  H       35.766      91.653     -99.568
  H       34.233      92.478     -99.720
  H       35.383      92.522    -101.035

 3  4  5  6  7  8  9  10  11  12  22  25  29  30  31  32 0
 6-311+G(2d,p)
 ****
 33  36  37 0
 6-311+G(2d,p)
 ****
 1  2  13  14  15  16  17  18  19  20  21  23  24  26 0
 3-21G
 ****
 27  28  34  35  38  39  40  41  42  43  44  45  46  47  48 0
 3-21G
 ****


