%nproc=1
%NoSave
%Mem=1900MB
#P OB98/GEN NMR

erre ene a

0 1
  C     -107.117     -21.796    -119.652
  O     -108.036     -22.762    -119.140
  P     -108.423     -22.610    -117.589
  C     -106.825     -24.436    -116.678
  O     -107.143     -23.054    -116.726
  C     -106.249     -24.822    -115.311
  O     -105.810     -26.214    -115.312
  C     -105.041     -23.969    -114.890
  O     -105.122     -23.816    -113.466
  C     -103.872     -24.864    -115.271
  O     -102.651     -24.482    -114.660
  C     -104.437     -26.218    -114.860
  N     -103.308     -31.153    -114.237
  C     -104.050     -30.296    -113.502
  N     -104.300     -28.990    -113.734
  C     -103.696     -28.590    -114.865
  C     -102.907     -29.345    -115.718
  C     -102.717     -30.693    -115.366
  N     -101.947     -31.568    -116.095
  N     -102.441     -28.570    -116.770
  C     -102.888     -27.355    -116.503
  N     -103.713     -27.337    -115.416
  O     -109.477     -23.789    -117.349
  O     -108.980     -21.269    -117.240
  H     -102.692     -24.656    -113.699
  H     -110.389     -23.442    -117.375
  H     -104.499     -30.715    -112.605
  H     -102.645     -26.463    -117.062
  H     -104.447     -26.348    -113.771
  H     -103.724     -24.820    -116.358
  H     -105.016     -22.981    -115.355
  H     -107.047     -24.732    -114.563
  H     -106.096     -24.681    -117.454
  H     -101.867     -32.515    -115.760
  H     -101.481     -31.261    -116.936
  H     -107.725     -25.018    -116.907
  P     -105.695     -22.442    -112.867
  C     -103.502     -21.168    -113.251
  O     -104.861     -21.296    -113.622
  O     -104.995     -22.438    -111.425
  O     -107.179     -22.306    -112.830
  H     -104.040     -22.608    -111.496
  H     -103.035     -20.414    -113.892
  H     -102.981     -22.120    -113.385
  H     -103.428     -20.842    -112.210
  H     -106.933     -21.993    -120.688
  H     -106.197     -21.856    -119.109
  H     -107.532     -20.816    -119.544

 3  4  5  6  7  8  9  10  11  12  22  25  29  30  31  32 0
 6-311+G(2d,p)
 ****
 33  36  37 0
 6-311+G(2d,p)
 ****
 1  2  13  14  15  16  17  18  19  20  21  23  24  26 0
 3-21G
 ****
 27  28  34  35  38  39  40  41  42  43  44  45  46  47  48 0
 3-21G
 ****


