%nproc=1
%NoSave
%Mem=1900MB
#P OB98/GEN NMR

erre ene a

0 1
  C      -97.354      29.305     -39.290
  O      -98.002      28.699     -38.191
  H      -96.857      30.215     -38.946
  H      -98.074      29.573     -40.067
  H      -96.599      28.629     -39.701
  P      -98.943      27.429     -38.451
  C      -97.175      25.588     -38.108
  O      -98.332      26.225     -37.584
  C      -96.460      24.783     -37.022
  O      -95.940      25.707     -36.028
  C      -97.368      23.775     -36.308
  O      -96.603      22.601     -36.026
  C      -97.723      24.500     -35.026
  O      -98.097      23.596     -34.004
  C      -96.453      25.309     -34.744
  N      -96.738      26.458     -33.886
  C      -96.851      26.203     -32.516
  O      -96.698      25.059     -32.083
  N      -97.199      27.228     -31.675
  C      -97.467      28.398     -32.164
  N      -97.844      29.359     -31.279
  C      -97.388      28.707     -33.606
  C      -97.020      27.703     -34.401
  O      -99.214      27.094     -39.880
  O     -100.292      27.792     -37.668
  H      -97.306      23.099     -33.704
  H     -100.910      28.255     -38.264
  H      -97.628      29.697     -33.964
  H      -96.946      27.835     -35.474
  H      -95.694      24.685     -34.255
  H      -98.570      25.174     -35.206
  H      -98.256      23.513     -36.889
  H      -95.594      24.282     -37.472
  H      -97.908      29.094     -30.304
  H      -96.505      26.368     -38.487
  H      -98.118      30.293     -31.545
  H      -97.456      24.932     -38.938
  P      -96.713      21.308     -36.970
  C      -95.143      21.819     -38.926
  O      -95.308      21.084     -37.718
  O      -97.904      21.292     -37.871
  O      -96.776      20.084     -35.936
  H      -97.297      19.358     -36.328
  H      -94.183      21.604     -39.346
  H      -95.215      22.866     -38.719
  H      -95.907      21.539     -39.621

 6  7  8  9  10  11  12  13  14  15  16  26  30  31  32  33  35 0
 6-311+G(2d,p)
 ****
 37  38 0
 6-311+G(2d,p)
 ****
 1  2  3  4  5  17  18  19  20  21  22  23  24  25 0
 3-21G
 ****
 27  28  29  34  36  39  40  41  42  43  44  45  46 0
 3-21G
 ****


