%nproc=1
%NoSave
%Mem=1900MB
#P OB98/GEN NMR

erre ene a

0 1
  C     -178.043     -17.048     233.696
  O     -177.072     -17.942     234.214
  P     -176.882     -19.362     233.499
  C     -177.254     -20.818     235.620
  O     -176.357     -20.398     234.606
  C     -176.493     -21.516     236.751
  O     -175.843     -22.715     236.227
  C     -175.403     -20.649     237.398
  O     -175.337     -21.004     238.790
  C     -174.147     -21.124     236.694
  O     -172.955     -20.810     237.400
  C     -174.448     -22.624     236.582
  N     -173.598     -23.304     235.608
  C     -172.223     -23.108     235.712
  O     -171.689     -22.400     236.566
  N     -171.462     -23.711     234.745
  C     -171.930     -24.395     233.664
  O     -171.198     -24.812     232.769
  C     -173.389     -24.572     233.604
  C     -174.144     -24.027     234.563
  O     -175.608     -19.132     232.560
  O     -178.068     -19.834     232.726
  H     -172.861     -19.841     237.397
  H     -175.888     -18.972     231.637
  H     -170.463     -23.591     234.813
  H     -173.793     -25.128     232.768
  H     -175.222     -24.123     234.533
  H     -174.335     -23.104     237.563
  H     -174.084     -20.655     235.705
  H     -175.572     -19.574     237.287
  H     -177.217     -21.847     237.510
  H     -177.978     -21.513     235.193
  H     -177.808     -19.954     236.006
  P     -175.792     -19.900     239.867
  C     -173.572     -18.728     240.615
  O     -174.557     -19.708     240.873
  O     -176.858     -20.740     240.721
  O     -176.356     -18.661     239.257
  H     -176.554     -21.645     240.916
  H     -174.000     -17.844     240.134
  H     -172.803     -19.153     239.964
  H     -173.114     -18.429     241.559
  H     -178.048     -16.150     234.279
  H     -179.009     -17.507     233.739
  H     -177.805     -16.812     232.680

 3  4  5  6  7  8  9  10  11  12  13  23  28  29  30  31  32 0
 6-311+G(2d,p)
 ****
 33  34 0
 6-311+G(2d,p)
 ****
 1  2  14  15  16  17  18  19  20  21  22  24  25  26 0
 3-21G
 ****
 27  35  36  37  38  39  40  41  42  43  44  45 0
 3-21G
 ****


