%nproc=1
%NoSave
%Mem=1900MB
#P OB98/GEN NMR

erre ene a

0 1
  C     -457.115     232.693    -207.799
  O     -456.498     233.885    -208.244
  H     -457.962     232.954    -207.157
  H     -456.414     232.087    -207.220
  H     -457.489     232.118    -208.651
  P     -455.177     233.774    -209.140
  C     -454.303     235.781    -207.758
  O     -454.450     235.201    -209.050
  C     -454.173     237.300    -207.861
  O     -452.945     237.648    -208.531
  C     -455.288     237.965    -208.661
  O     -456.478     238.021    -207.902
  C     -454.645     239.306    -208.969
  O     -454.707     240.181    -207.829
  C     -453.183     238.885    -209.251
  N     -452.886     238.722    -210.671
  C     -452.636     239.895    -211.391
  O     -452.683     240.991    -210.826
  N     -452.357     239.797    -212.731
  C     -452.290     238.629    -213.301
  N     -452.003     238.601    -214.626
  C     -452.511     237.366    -212.571
  C     -452.817     237.484    -211.280
  O     -455.364     233.261    -210.536
  O     -454.212     232.822    -208.287
  H     -455.625     240.512    -207.793
  H     -454.308     231.894    -208.574
  H     -452.438     236.417    -213.077
  H     -452.995     236.602    -210.669
  H     -452.484     239.628    -208.845
  H     -455.136     239.823    -209.795
  H     -455.449     237.434    -209.604
  H     -454.122     237.705    -206.843
  H     -451.842     239.492    -215.079
  H     -453.397     235.355    -207.312
  H     -451.768     237.757    -215.129
  H     -455.155     235.519    -207.119
  P     -457.866     237.446    -208.470
  C     -459.185     239.479    -207.614
  O     -459.010     238.071    -207.537
  O     -457.917     235.965    -208.626
  O     -458.068     238.235    -209.845
  H     -457.484     237.856    -210.548
  H     -459.970     239.778    -206.952
  H     -459.441     239.752    -208.616
  H     -458.276     239.967    -207.332

 6  7  8  9  10  11  12  13  14  15  16  26  30  31  32  33  35 0
 6-311+G(2d,p)
 ****
 37  38 0
 6-311+G(2d,p)
 ****
 1  2  3  4  5  17  18  19  20  21  22  23  24  25 0
 3-21G
 ****
 27  28  29  34  36  39  40  41  42  43  44  45  46 0
 3-21G
 ****


