%nproc=1
%NoSave
%Mem=1900MB
#P OB98/GEN NMR

erre ene a

0 1
  C     1347.226     616.521     789.441
  O     1346.955     617.787     790.015
  H     1348.005     616.652     788.696
  H     1346.328     616.138     788.941
  H     1347.558     615.827     790.201
  P     1345.778     617.855     791.110
  C     1347.176     619.564     792.432
  O     1346.517     618.309     792.471
  C     1347.793     619.872     793.809
  O     1346.736     619.851     794.802
  C     1348.852     618.866     794.267
  O     1349.883     619.566     795.006
  C     1348.134     617.970     795.216
  O     1348.975     617.296     796.120
  C     1347.130     618.946     795.822
  N     1345.583     615.881     799.618
  C     1346.755     616.549     799.392
  N     1347.069     617.358     798.378
  C     1346.010     617.505     797.546
  C     1344.781     616.913     797.649
  C     1344.556     616.031     798.732
  N     1343.413     615.326     798.939
  N     1343.963     617.281     796.560
  C     1344.739     618.098     795.833
  N     1345.983     618.242     796.386
  O     1344.947     616.628     791.239
  O     1344.999     619.182     790.687
  H     1348.400     616.728     796.683
  H     1345.606     619.913     790.508
  H     1347.536     616.395     800.144
  H     1344.416     618.582     794.930
  H     1347.594     619.516     796.668
  H     1347.590     617.177     794.627
  H     1349.323     618.327     793.413
  H     1348.186     620.914     793.779
  H     1346.506     620.354     792.149
  H     1343.356     614.745     799.760
  H     1342.629     615.439     798.294
  H     1347.993     619.512     791.678
  P     1351.415     619.391     794.543
  C     1352.106     621.878     794.622
  O     1351.907     620.747     793.789
  O     1351.731     618.149     793.797
  O     1352.252     619.473     795.925
  H     1352.902     618.759     795.935
  H     1352.426     622.707     794.027
  H     1352.854     621.655     795.354
  H     1351.188     622.125     795.113

 6  7  8  9  10  11  12  13  14  15  25  28  32  33  34  35 0
 6-311+G(2d,p)
 ****
 36  39  40 0
 6-311+G(2d,p)
 ****
 1  2  3  4  5  16  17  18  19  20  21  22  23  24 0
 3-21G
 ****
 26  27  29  30  31  37  38  41  42  43  44  45  46  47 0
 3-21G
 ****
 48 0
 3-21G
 ****


