%nproc=1
%NoSave
%Mem=1900MB
#P OB98/GEN NMR

erre ene a

0 1
  C      111.101     -25.476    -583.384
  O      110.879     -24.199    -582.825
  H      110.210     -25.796    -583.931
  H      111.939     -25.416    -584.084
  H      111.342     -26.206    -582.605
  P      109.900     -24.111    -581.557
  C      111.397     -22.471    -580.211
  O      110.830     -23.772    -580.291
  C      112.421     -22.404    -579.079
  O      113.566     -23.232    -579.439
  C      112.943     -20.989    -578.779
  O      113.099     -20.854    -577.365
  C      114.313     -20.977    -579.433
  O      115.199     -20.038    -578.837
  C      114.744     -22.428    -579.247
  N      119.450     -21.259    -580.775
  C      118.765     -20.953    -579.653
  N      117.526     -21.351    -579.302
  C      117.025     -22.207    -580.209
  C      117.608     -22.617    -581.395
  C      118.877     -22.091    -581.678
  N      119.557     -22.342    -582.848
  N      116.752     -23.455    -582.087
  C      115.663     -23.522    -581.344
  N      115.779     -22.783    -580.201
  O      109.498     -25.645    -581.328
  O      108.703     -23.238    -581.726
  H      115.363     -20.300    -577.909
  H      108.719     -25.862    -581.872
  H      119.268     -20.290    -578.958
  H      114.762     -24.061    -581.600
  H      115.136     -22.629    -578.240
  H      114.211     -20.729    -580.496
  H      112.293     -20.190    -579.159
  H      111.977     -22.849    -578.181
  H      110.601     -21.748    -580.011
  H      120.415     -21.835    -583.012
  H      119.099     -22.869    -583.576
  H      111.868     -22.225    -581.166
  P      112.031     -19.947    -576.589
  C      110.852     -21.841    -575.244
  O      110.745     -20.842    -576.255
  O      111.503     -18.948    -577.721
  O      112.601     -19.203    -575.423
  H      111.280     -18.081    -577.335
  H      109.915     -22.347    -575.142
  H      111.112     -21.381    -574.314
  H      111.610     -22.545    -575.517

 6  7  8  9  10  11  12  13  14  15  25  28  32  33  34  35 0
 6-311+G(2d,p)
 ****
 36  39  40 0
 6-311+G(2d,p)
 ****
 1  2  3  4  5  16  17  18  19  20  21  22  23  24 0
 3-21G
 ****
 26  27  29  30  31  37  38  41  42  43  44  45  46  47 0
 3-21G
 ****
 48 0
 3-21G
 ****


