%nproc=1
%NoSave
%Mem=1900MB
#P OB98/GEN NMR

erre ene a

0 1
  C       42.534     210.694    -709.271
  O       43.165     209.560    -708.696
  P       44.621     209.677    -708.036
  C       45.944     208.799    -710.052
  O       45.678     209.924    -709.225
  C       47.386     208.823    -710.549
  O       47.692     207.525    -711.138
  C       47.691     209.887    -711.626
  O       49.044     210.314    -711.413
  C       47.605     209.101    -712.923
  O       48.285     209.731    -713.998
  C       48.207     207.780    -712.475
  N       49.556     205.080    -716.612
  C       50.103     206.162    -716.033
  N       49.684     206.840    -714.927
  C       48.546     206.290    -714.455
  C       47.851     205.201    -714.972
  C       48.413     204.569    -716.102
  N       47.890     203.453    -716.698
  N       46.705     204.969    -714.224
  C       46.719     205.896    -713.283
  N       47.839     206.670    -713.352
  O       44.980     208.570    -707.094
  O       44.579     211.094    -707.268
  H       47.870     209.449    -714.832
  H       44.509     210.938    -706.309
  H       51.036     206.548    -716.477
  H       45.944     206.041    -712.543
  H       49.300     207.814    -712.409
  H       46.556     208.985    -713.214
  H       47.006     210.743    -711.588
  H       48.047     208.949    -709.686
  H       45.263     208.848    -710.905
  H       48.450     203.003    -717.415
  H       47.210     202.889    -716.178
  H       45.750     207.881    -709.497
  P       49.442     211.854    -711.624
  C       50.090     211.470    -714.074
  O       49.225     212.165    -713.184
  O       50.757     212.274    -711.067
  O       48.240     212.660    -710.935
  H       48.493     213.593    -710.765
  H       51.067     211.992    -714.113
  H       49.655     211.474    -715.078
  H       50.260     210.442    -713.750
  H       41.576     210.412    -709.655
  H       43.140     211.074    -710.067
  H       42.410     211.450    -708.524

 3  4  5  6  7  8  9  10  11  12  22  25  29  30  31  32 0
 6-311+G(2d,p)
 ****
 33  36  37 0
 6-311+G(2d,p)
 ****
 1  2  13  14  15  16  17  18  19  20  21  23  24  26 0
 3-21G
 ****
 27  28  34  35  38  39  40  41  42  43  44  45  46  47  48 0
 3-21G
 ****


