%nproc=1
%NoSave
%Mem=1900MB
#P OB98/GEN NMR

erre ene a

0 1
  C      316.799    -409.661    -893.912
  O      316.925    -410.815    -894.725
  H      317.522    -408.915    -894.241
  H      317.007    -409.897    -892.865
  H      315.793    -409.241    -894.000
  P      316.075    -412.113    -894.332
  C      317.454    -413.783    -892.905
  O      317.144    -413.312    -894.214
  C      317.819    -415.263    -892.956
  O      316.702    -416.053    -893.429
  C      318.965    -415.565    -893.915
  O      320.201    -415.176    -893.368
  C      318.778    -417.046    -894.134
  O      319.328    -417.806    -893.051
  C      317.229    -417.166    -894.171
  N      316.709    -417.189    -895.530
  C      315.623    -418.060    -895.750
  O      315.175    -418.750    -894.840
  N      315.106    -418.129    -897.030
  C      315.595    -417.387    -897.980
  N      315.030    -417.519    -899.200
  C      316.724    -416.451    -897.770
  C      317.219    -416.395    -896.540
  O      314.885    -412.432    -895.186
  O      315.654    -411.848    -892.808
  H      319.450    -418.725    -893.402
  H      314.809    -411.375    -892.762
  H      317.086    -415.848    -898.590
  H      318.050    -415.740    -896.310
  H      316.911    -418.082    -893.657
  H      319.266    -417.388    -895.050
  H      318.798    -415.052    -894.884
  H      318.066    -415.591    -891.931
  H      314.276    -418.177    -899.320
  H      316.551    -413.642    -892.296
  H      315.273    -416.936    -900.000
  H      318.260    -413.207    -892.460
  P      320.866    -413.760    -893.735
  C      323.228    -414.781    -893.461
  O      322.311    -413.760    -893.042
  O      320.019    -412.560    -893.454
  O      321.236    -413.925    -895.297
  H      320.409    -413.873    -895.860
  H      324.150    -414.673    -892.928
  H      323.410    -414.688    -894.511
  H      322.808    -415.744    -893.256

 6  7  8  9  10  11  12  13  14  15  16  26  30  31  32  33  35 0
 6-311+G(2d,p)
 ****
 37  38 0
 6-311+G(2d,p)
 ****
 1  2  3  4  5  17  18  19  20  21  22  23  24  25 0
 3-21G
 ****
 27  28  29  34  36  39  40  41  42  43  44  45  46 0
 3-21G
 ****


