%nproc=1
%NoSave
%Mem=1900MB
#P OB98/GEN NMR

erre ene a

0 1
  C     -251.726     179.933     744.607
  O     -251.440     179.647     745.991
  P     -251.912     178.303     746.711
  C     -251.016     176.842     748.655
  O     -251.152     178.165     748.121
  C     -249.838     176.734     749.620
  O     -248.584     176.931     748.920
  C     -249.830     177.774     750.736
  O     -250.780     177.437     751.751
  C     -248.377     177.720     751.181
  O     -248.153     176.614     752.092
  C     -247.650     177.484     749.852
  N     -247.028     178.708     749.332
  C     -245.866     179.149     749.967
  O     -245.433     178.542     750.968
  N     -245.229     180.267     749.492
  C     -245.762     180.931     748.507
  N     -245.088     182.034     748.055
  C     -247.036     180.560     747.867
  C     -247.605     179.449     748.319
  O     -251.821     177.078     745.854
  O     -253.435     178.575     747.142
  H     -247.185     176.617     752.292
  H     -253.922     177.725     747.132
  H     -247.456     181.163     747.076
  H     -248.544     179.097     747.903
  H     -246.855     176.731     749.972
  H     -248.056     178.631     751.710
  H     -250.056     178.774     750.331
  H     -249.832     175.718     750.045
  H     -244.207     182.257     748.523
  H     -250.856     176.151     747.809
  H     -245.412     182.626     747.304
  H     -251.949     176.571     749.161
  P     -251.873     178.522     752.188
  C     -254.125     177.933     753.285
  O     -252.720     177.880     753.398
  O     -252.691     179.109     751.092
  O     -251.018     179.649     752.940
  H     -251.448     180.520     752.804
  H     -254.576     177.148     753.906
  H     -254.450     177.794     752.238
  H     -254.491     178.914     753.629
  H     -251.313     180.885     744.347
  H     -252.785     179.951     744.458
  H     -251.292     179.175     743.989

 3  4  5  6  7  8  9  10  11  12  13  23  27  28  29  30  32 0
 6-311+G(2d,p)
 ****
 34  35 0
 6-311+G(2d,p)
 ****
 1  2  14  15  16  17  18  19  20  21  22  24  25  26 0
 3-21G
 ****
 31  33  36  37  38  39  40  41  42  43  44  45  46 0
 3-21G
 ****


