%nproc=1
%NoSave
%Mem=1900MB
#P OB98/GEN NMR

erre ene a

0 1
  C     -238.836     288.153     192.945
  O     -238.608     287.790     191.599
  H     -238.290     289.078     193.159
  H     -238.467     287.370     193.615
  H     -239.902     288.327     193.126
  P     -239.447     286.547     191.021
  C     -237.618     285.001     189.999
  O     -238.617     285.989     189.765
  C     -236.237     285.650     190.141
  O     -236.081     286.119     191.506
  C     -235.081     284.699     189.830
  O     -234.061     285.438     189.142
  C     -234.573     284.300     191.202
  O     -233.202     283.891     191.186
  C     -234.862     285.556     192.029
  N     -234.974     285.251     193.449
  C     -233.793     284.895     194.104
  O     -232.731     284.840     193.491
  N     -233.851     284.545     195.442
  C     -235.004     284.482     196.035
  N     -235.001     284.100     197.344
  C     -236.285     284.784     195.365
  C     -236.191     285.157     194.088
  O     -240.716     287.240     190.341
  O     -239.826     285.514     192.024
  H     -232.958     283.598     192.092
  H     -241.503     286.661     190.396
  H     -237.219     284.686     195.890
  H     -237.083     285.399     193.507
  H     -234.066     286.300     191.884
  H     -235.161     283.450     191.582
  H     -235.375     283.839     189.224
  H     -236.206     286.537     189.485
  H     -234.105     283.892     197.762
  H     -237.602     284.308     189.154
  H     -235.840     283.972     197.891
  H     -237.868     284.442     190.904
  P     -233.678     284.918     187.671
  C     -231.255     285.696     188.230
  O     -232.279     285.614     187.251
  O     -234.751     285.640     186.729
  O     -233.708     283.433     187.527
  H     -235.393     284.983     186.405
  H     -230.397     286.177     187.809
  H     -230.989     284.711     188.552
  H     -231.607     286.262     189.067

 6  7  8  9  10  11  12  13  14  15  16  26  30  31  32  33  35 0
 6-311+G(2d,p)
 ****
 37  38 0
 6-311+G(2d,p)
 ****
 1  2  3  4  5  17  18  19  20  21  22  23  24  25 0
 3-21G
 ****
 27  28  29  34  36  39  40  41  42  43  44  45  46 0
 3-21G
 ****


