%nproc=1
%NoSave
%Mem=1900MB
#P OB98/GEN NMR

erre ene a

0 1
  C     -138.043     197.000    -116.134
  O     -137.647     196.986    -117.491
  H     -138.851     196.278    -115.997
  H     -138.406     197.995    -115.859
  H     -137.205     196.719    -115.491
  P     -136.451     197.975    -117.894
  C     -134.701     196.263    -118.790
  O     -135.101     197.124    -117.735
  C     -134.709     194.804    -118.320
  O     -136.051     194.469    -117.858
  C     -134.356     193.793    -119.423
  O     -133.749     192.650    -118.797
  C     -135.731     193.416    -119.948
  O     -135.667     192.258    -120.748
  C     -136.489     193.327    -118.627
  N     -140.931     192.109    -116.410
  C     -139.657     192.034    -115.970
  N     -138.526     192.388    -116.613
  C     -138.807     192.887    -117.829
  C     -140.055     193.033    -118.411
  C     -141.157     192.613    -117.646
  N     -142.456     192.680    -118.094
  N     -139.943     193.579    -119.677
  C     -138.649     193.758    -119.853
  N     -137.925     193.347    -118.768
  O     -136.398     199.006    -116.672
  O     -136.605     198.669    -119.205
  H     -135.021     192.373    -121.477
  H     -136.913     199.806    -116.890
  H     -139.528     191.632    -114.969
  H     -138.186     194.168    -120.742
  H     -136.222     192.425    -118.064
  H     -136.138     194.212    -120.579
  H     -133.678     194.196    -120.180
  H     -134.043     194.702    -117.456
  H     -133.692     196.546    -119.106
  H     -135.388     196.377    -119.634
  H     -143.188     192.343    -117.491
  H     -142.637     193.038    -119.020
  P     -132.316     192.815    -118.087
  C     -132.425     191.359    -115.916
  O     -132.505     192.650    -116.503
  O     -132.056     194.392    -118.226
  O     -131.197     192.039    -118.699
  H     -131.096     194.563    -118.250
  H     -132.574     191.438    -114.859
  H     -131.460     190.938    -116.110
  H     -133.180     190.728    -116.337

 6  7  8  9  10  11  12  13  14  15  25  28  32  33  34  35 0
 6-311+G(2d,p)
 ****
 36  37  40 0
 6-311+G(2d,p)
 ****
 1  2  3  4  5  16  17  18  19  20  21  22  23  24 0
 3-21G
 ****
 26  27  29  30  31  38  39 41  42  43  44  45  46  47  48 0
 3-21G
 ****


