%nproc=1
%NoSave
%Mem=1900MB
#P OB98/GEN NMR

erre ene a

0 1
  C     -449.623     444.052     -77.863
  O     -450.067     443.668     -79.160
  P     -450.947     442.342     -79.359
  C     -450.478     439.862     -79.872
  O     -449.923     441.176     -79.777
  C     -449.746     439.044     -80.937
  O     -450.047     439.604     -82.243
  C     -448.225     439.062     -80.773
  O     -447.715     437.777     -81.152
  C     -447.749     440.084     -81.789
  O     -446.399     439.817     -82.204
  C     -448.804     439.942     -82.888
  N     -447.472     442.546     -87.110
  C     -447.123     441.320     -86.661
  N     -447.492     440.702     -85.520
  C     -448.362     441.462     -84.833
  C     -448.821     442.726     -85.169
  C     -448.339     443.279     -86.366
  N     -448.710     444.523     -86.829
  N     -449.684     443.196     -84.200
  C     -449.763     442.236     -83.313
  N     -448.990     441.157     -83.656
  O     -452.118     442.495     -80.271
  O     -451.389     441.924     -77.884
  H     -446.422     438.999     -82.748
  H     -452.309     441.582     -77.885
  H     -446.441     440.767     -87.303
  H     -450.353     442.263     -82.412
  H     -448.556     439.127     -83.581
  H     -447.768     441.086     -81.339
  H     -447.904     439.306     -79.749
  H     -450.129     438.021     -80.916
  H     -451.532     439.954     -80.147
  H     -448.407     444.779     -87.750
  H     -449.480     444.995     -86.365
  H     -450.417     439.370     -78.892
  P     -446.403     437.286     -80.348
  C     -444.076     438.435     -80.087
  O     -445.476     438.589     -80.244
  O     -445.801     436.060     -80.967
  O     -446.998     437.069     -78.882
  H     -447.802     437.619     -78.734
  H     -443.630     439.427     -79.998
  H     -443.649     437.930     -80.962
  H     -443.857     437.854     -79.187
  H     -449.055     444.956     -77.934
  H     -449.011     443.277     -77.452
  H     -450.470     444.212     -77.229

 3  4  5  6  7  8  9  10  11  12  22  25  29  30  31  32 0
 6-311+G(2d,p)
 ****
 33  36  37 0
 6-311+G(2d,p)
 ****
 1  2  13  14  15  16  17  18  19  20  21  23  24  26 0
 3-21G
 ****
 27  28  34  35  38  39  40  41  42  43  44  45  46  47  48 0
 3-21G
 ****


