%nproc=1
%NoSave
%Mem=1900MB
#P OB98/GEN NMR

erre ene a

0 1
  C     -477.692     740.946     249.434
  O     -476.574     740.129     249.083
  P     -476.815     738.574     248.780
  C     -477.942     738.325     246.473
  O     -476.712     738.346     247.196
  C     -477.690     738.063     244.982
  O     -477.167     739.230     244.314
  C     -476.671     736.955     244.736
  O     -477.233     735.687     244.995
  C     -476.296     737.215     243.274
  O     -477.261     736.640     242.395
  C     -476.366     738.765     243.203
  N     -475.053     739.400     243.199
  C     -474.845     740.369     242.209
  O     -475.731     740.612     241.383
  N     -473.643     741.019     242.161
  C     -472.723     740.733     243.032
  N     -471.544     741.411     242.948
  C     -472.895     739.710     244.088
  C     -474.058     739.085     244.104
  O     -478.019     737.971     249.429
  O     -475.468     737.887     249.319
  H     -477.389     735.717     242.706
  H     -475.672     736.987     249.625
  H     -472.094     739.513     244.792
  H     -474.280     738.319     244.836
  H     -476.884     739.071     242.286
  H     -475.310     736.791     243.028
  H     -475.788     737.124     245.383
  H     -478.649     737.795     244.514
  H     -471.443     742.104     242.213
  H     -478.449     739.288     246.594
  H     -470.789     741.297     243.612
  H     -478.594     737.563     246.904
  P     -476.301     734.601     245.720
  C     -477.951     733.122     247.049
  O     -477.146     733.256     245.897
  O     -476.184     735.162     247.226
  O     -474.941     734.422     245.106
  H     -475.299     734.956     247.583
  H     -478.687     732.323     246.869
  H     -478.487     734.043     247.273
  H     -477.327     732.829     247.897
  H     -477.361     741.950     249.603
  H     -478.146     740.566     250.325
  H     -478.406     740.935     248.637

 3  4  5  6  7  8  9  10  11  12  13  23  27  28  29  30  32 0
 6-311+G(2d,p)
 ****
 34  35 0
 6-311+G(2d,p)
 ****
 1  2  14  15  16  17  18  19  20  21  22  24  25  26 0
 3-21G
 ****
 31  33  36  37  38  39  40  41  42  43  44  45  46 0
 3-21G
 ****


