%nproc=1
%NoSave
%Mem=1900MB
#P OB98/GEN NMR

erre ene a

0 1
  C       56.244     -34.722     -43.796
  O       55.783     -34.154     -42.589
  H       57.287     -34.432     -43.943
  H       55.651     -34.342     -44.633
  H       56.184     -35.813     -43.769
  P       54.422     -34.700     -41.951
  C       55.398     -34.259     -39.604
  O       54.300     -34.068     -40.481
  C       55.069     -33.767     -38.189
  O       54.824     -32.340     -38.218
  C       53.785     -34.427     -37.680
  O       53.770     -34.548     -36.261
  C       52.707     -33.445     -38.109
  O       51.507     -33.568     -37.351
  C       53.434     -32.115     -37.920
  N       50.584     -27.901     -38.186
  C       50.747     -28.780     -37.134
  N       50.041     -28.513     -36.013
  N       51.520     -29.833     -37.184
  C       52.105     -30.017     -38.392
  C       52.000     -29.230     -39.516
  C       51.174     -28.045     -39.435
  O       50.978     -27.240     -40.341
  N       52.726     -29.746     -40.559
  C       53.263     -30.846     -40.072
  N       52.927     -31.046     -38.755
  O       54.738     -36.240     -41.640
  O       53.200     -34.554     -42.805
  H       51.695     -33.247     -36.449
  H       53.914     -36.759     -41.621
  H       49.989     -27.097     -38.089
  H       53.902     -31.525     -40.623
  H       53.363     -31.780     -36.877
  H       52.453     -33.648     -39.153
  H       49.307     -27.822     -35.990
  H       53.628     -35.412     -38.121
  H       49.919     -29.287     -35.356
  H       55.921     -33.930     -37.522
  H       56.241     -33.690     -40.010
  H       55.690     -35.312     -39.586
  P       53.539     -36.008     -35.643
  C       55.444     -35.742     -33.859
  O       54.078     -35.991     -34.134
  O       54.593     -36.918     -36.428
  O       52.143     -36.509     -35.793
  H       54.136     -37.471     -37.087
  H       55.606     -35.772     -32.802
  H       55.713     -34.777     -34.234
  H       56.045     -36.489     -34.333

 6  7  8  9  10  11  12  13  14  15  26  29  33  34 0
 6-311+G(2d,p)
 ****
 36  38  39  40  41 0
 6-311+G(2d,p)
 ****
 1  2  3  4  5  16  17  18  19  20  21  22  23  24  25 0
 3-21G
 ****
 27  28  30  31  32  35  37  42  43  44  45  46  47 0
 3-21G
 ****
 48  49 0
 3-21G
 ****


