%nproc=1
%NoSave
%Mem=1900MB
#P OB98/GEN NMR

erre ene a

0 1
  C      129.095     668.310    -635.418
  O      130.101     667.485    -635.972
  H      129.515     669.310    -635.252
  H      128.772     667.903    -634.458
  H      128.250     668.388    -636.099
  P      129.654     666.022    -636.462
  C      130.325     664.943    -634.162
  O      129.316     665.208    -635.117
  C      129.784     664.039    -633.042
  O      129.092     662.913    -633.652
  C      130.876     663.477    -632.122
  O      130.349     663.402    -630.792
  C      131.100     662.078    -632.663
  O      131.661     661.212    -631.682
  C      129.679     661.705    -633.132
  N      129.689     660.637    -634.129
  C      129.756     659.321    -633.645
  O      129.817     659.116    -632.427
  N      129.794     658.289    -634.543
  C      129.820     658.537    -635.817
  N      129.883     657.468    -636.654
  C      129.804     659.905    -636.365
  C      129.719     660.900    -635.483
  O      131.042     665.397    -636.950
  O      128.573     666.028    -637.495
  H      132.585     661.518    -631.489
  H      131.776     665.565    -636.339
  H      129.841     660.063    -637.441
  H      129.688     661.930    -635.800
  H      129.067     661.378    -632.276
  H      131.782     662.109    -633.521
  H      131.791     664.091    -632.128
  H      129.040     664.602    -632.476
  H      129.918     656.545    -636.229
  H      130.693     665.881    -633.729
  H      129.967     657.539    -637.656
  H      131.159     664.460    -634.671
  P      130.948     664.337    -629.644
  C      132.310     662.402    -628.603
  O      132.347     663.718    -629.144
  O      130.008     664.738    -628.567
  O      131.436     665.634    -630.474
  H      131.209     666.423    -629.948
  H      133.297     662.109    -628.310
  H      131.941     661.723    -629.343
  H      131.665     662.385    -627.750

 6  7  8  9  10  11  12  13  14  15  16  26  30  31  32  33  35 0
 6-311+G(2d,p)
 ****
 37  38 0
 6-311+G(2d,p)
 ****
 1  2  3  4  5  17  18  19  20  21  22  23  24  25 0
 3-21G
 ****
 27  28  29  34  36  39  40  41  42  43  44  45  46 0
 3-21G
 ****


