%nproc=1
%NoSave
%Mem=1900MB
#P OB98/GEN NMR

erre ene a

0 1
  C        2.872      37.974     -95.605
  O        3.627      38.718     -96.537
  P        4.405      38.055     -97.765
  C        6.753      37.034     -98.204
  O        5.890      37.683     -97.276
  C        8.238      37.333     -97.950
  O        8.439      38.759     -97.896
  C        8.660      36.785     -96.584
  O        9.025      35.426     -96.443
  C        9.683      37.782     -96.057
  O       11.029      37.354     -96.274
  C        9.388      39.051     -96.859
  N       10.350      42.346     -93.129
  C       11.234      41.575     -93.859
  N       12.506      41.546     -93.403
  N       10.892      40.886     -94.915
  C        9.568      40.940     -95.189
  C        8.599      41.677     -94.549
  C        8.998      42.467     -93.409
  O        8.230      43.097     -92.685
  N        7.351      41.429     -95.056
  C        7.554      40.510     -95.978
  N        8.879      40.152     -96.067
  O        4.232      38.703     -99.100
  O        3.700      36.605     -97.839
  H       11.131      36.472     -95.874
  H        3.667      36.343     -98.779
  H       10.656      42.794     -92.275
  H        6.780      40.049     -96.579
  H       10.295      39.412     -97.359
  H        9.573      37.914     -94.974
  H       12.770      41.945     -92.514
  H        7.793      36.894     -95.919
  H       13.138      40.864     -93.807
  H        8.857      36.976     -98.778
  H        6.459      37.359     -99.206
  H        6.592      35.954     -98.157
  P        8.594      34.445     -95.256
  C        8.609      34.483     -92.699
  O        9.158      35.037     -93.881
  O        9.494      33.139     -95.477
  O        7.146      34.080     -95.236
  H        9.073      32.373     -95.044
  H        8.825      35.148     -91.860
  H        9.066      33.507     -92.507
  H        7.526      34.364     -92.790
  H        2.448      38.636     -94.879
  H        3.508      37.267     -95.114
  H        2.088      37.454     -96.115

 3  4  5  6  7  8  9  10  11  12  23  26  30  31 0
 6-311+G(2d,p)
 ****
 33  35  36  37  38 0
 6-311+G(2d,p)
 ****
 1  2  13  14  15  16  17  18  19  20  21  22  24  25 0
 3-21G
 ****
 27  28  29  32  34  39  40  41  42  43  44  45  46  47  48  49 0
 3-21G
 ****


