%nproc=1
%NoSave
%Mem=1900MB
#P OB98/GEN NMR

erre ene a

0 1
  C      223.722     221.207     -45.707
  O      223.761     220.087     -44.846
  H      224.262     220.994     -46.634
  H      222.679     221.431     -45.945
  H      224.166     222.077     -45.213
  P      225.218     219.534     -44.462
  C      226.164     218.068     -42.547
  O      225.083     218.861     -43.011
  C      225.643     216.906     -41.711
  O      224.950     217.398     -40.545
  C      224.637     216.005     -42.423
  O      225.277     215.091     -43.306
  C      224.008     215.291     -41.238
  O      224.865     214.217     -40.807
  C      223.972     216.395     -40.167
  N      219.595     216.530     -37.481
  C      220.706     215.766     -37.358
  N      221.822     215.777     -38.114
  C      221.739     216.709     -39.080
  C      220.677     217.556     -39.326
  C      219.558     217.444     -38.480
  N      218.428     218.213     -38.625
  N      220.956     218.388     -40.389
  C      222.164     218.050     -40.780
  N      222.680     217.032     -40.024
  O      226.060     220.868     -44.174
  O      225.874     218.688     -45.503
  H      224.367     213.714     -40.137
  H      226.979     220.734     -44.478
  H      220.696     215.051     -36.540
  H      222.702     218.511     -41.600
  H      224.274     216.011     -39.184
  H      223.031     214.861     -41.464
  H      223.875     216.595     -42.940
  H      226.508     216.324     -41.365
  H      226.827     218.683     -41.931
  H      217.753     218.226     -37.879
  H      218.411     218.904     -39.372
  H      226.724     217.695     -43.412
  P      224.353     214.335     -44.380
  C      224.862     212.895     -46.480
  O      225.352     213.840     -45.534
  O      223.548     215.530     -45.076
  O      223.438     213.302     -43.812
  H      222.706     215.198     -45.438
  H      225.634     212.661     -47.183
  H      224.023     213.311     -46.997
  H      224.561     212.003     -45.971

 6  7  8  9  10  11  12  13  14  15  25  28  32  33  34  35 0
 6-311+G(2d,p)
 ****
 36  39  40 0
 6-311+G(2d,p)
 ****
 1  2  3  4  5  16  17  18  19  20  21  22  23  24 0
 3-21G
 ****
 26  27  29  30  31  37  38  41  42  43  44  45  46  47  48 0
 3-21G
 ****


