%nproc=1
%NoSave
%Mem=1900MB
#P OB98/GEN NMR

erre ene a

0 1
  C       14.217     -57.782    -450.533
  O       14.220     -59.131    -451.011
  P       15.019     -60.202    -450.116
  C       17.417     -61.194    -450.050
  O       16.538     -60.248    -450.656
  C       18.800     -61.175    -450.723
  O       18.705     -61.583    -452.118
  C       19.479     -59.801    -450.701
  O       20.888     -60.028    -450.571
  C       19.193     -59.264    -452.096
  O       20.081     -58.201    -452.441
  C       19.351     -60.545    -452.905
  N       19.686     -58.288    -457.413
  C       20.384     -58.049    -456.246
  N       21.346     -57.103    -456.298
  N       20.155     -58.688    -455.122
  C       19.195     -59.636    -455.230
  C       18.443     -59.980    -456.333
  C       18.680     -59.239    -457.560
  O       18.098     -59.415    -458.619
  N       17.581     -61.009    -456.056
  C       17.769     -61.246    -454.767
  N       18.771     -60.471    -454.234
  O       14.406     -61.603    -450.593
  O       14.867     -59.987    -448.649
  H       20.996     -58.522    -452.314
  H       13.747     -61.914    -449.940
  H       19.891     -57.760    -458.243
  H       17.225     -61.965    -454.181
  H       20.404     -60.829    -453.045
  H       18.166     -58.883    -452.152
  H       21.604     -56.616    -457.140
  H       19.122     -59.131    -449.909
  H       21.904     -56.937    -455.465
  H       19.435     -61.906    -450.212
  H       16.991     -62.195    -450.136
  H       17.492     -60.983    -448.980
  P       21.661     -59.252    -449.403
  C       22.376     -56.805    -448.940
  O       21.843     -57.733    -449.865
  O       23.153     -59.846    -449.493
  O       21.095     -59.458    -448.031
  H       23.514     -59.965    -448.593
  H       22.865     -55.995    -449.494
  H       23.107     -57.270    -448.275
  H       21.560     -56.380    -448.346
  H       13.658     -57.166    -451.206
  H       15.223     -57.423    -450.473
  H       13.767     -57.748    -449.563

 3  4  5  6  7  8  9  10  11  12  23  26  30  31 0
 6-311+G(2d,p)
 ****
 33  35  36  37  38 0
 6-311+G(2d,p)
 ****
 1  2  13  14  15  16  17  18  19  20  21  22  24  25 0
 3-21G
 ****
 27  28  29  32  34  39  40  41  42  43  44  45  46  47  48  49 0
 3-21G
 ****


