%nproc=1
%NoSave
%Mem=1900MB
#P OB98/GEN NMR

erre ene a

0 1
  C     -586.209     633.665     812.996
  O     -586.271     632.258     813.278
  P     -585.080     631.237     812.952
  C     -584.193     630.385     815.235
  O     -584.018     631.302     814.159
  C     -584.097     631.100     816.583
  O     -585.168     632.076     816.707
  C     -584.261     630.218     817.811
  O     -583.117     629.417     818.043
  C     -584.534     631.254     818.892
  O     -583.316     631.807     819.412
  C     -585.316     632.338     818.120
  N     -586.719     632.401     818.499
  C     -587.061     633.316     819.499
  O     -586.189     633.964     820.080
  N     -588.387     633.459     819.832
  C     -589.271     632.678     819.289
  N     -590.574     632.882     819.645
  C     -588.932     631.607     818.330
  C     -587.656     631.528     817.981
  O     -584.465     631.432     811.606
  O     -585.721     629.780     813.082
  H     -585.226     629.149     812.527
  H     -583.565     632.475     820.078
  H     -589.700     630.960     817.934
  H     -587.321     630.781     817.276
  H     -584.863     633.323     818.286
  H     -585.080     630.826     819.743
  H     -585.149     629.580     817.682
  H     -583.139     631.639     816.619
  H     -590.774     633.630     820.296
  H     -583.405     629.632     815.180
  H     -591.343     632.347     819.262
  H     -585.164     629.883     815.127
  P     -583.232     627.855     817.680
  C     -581.342     627.266     816.007
  O     -582.681     627.659     816.190
  O     -584.810     627.616     817.536
  O     -582.638     626.936     818.689
  H     -585.051     626.754     817.913
  H     -581.261     626.725     815.052
  H     -581.005     626.608     816.818
  H     -580.701     628.143     815.962
  H     -587.122     634.131     813.303
  H     -586.069     633.812     811.945
  H     -585.390     634.100     813.529

 3  4  5  6  7  8  9  10  11  12  13  24  27  28  29  30  32 0
 6-311+G(2d,p)
 ****
 34  35 0
 6-311+G(2d,p)
 ****
 1  2  14  15  16  17  18  19  20  21  22  23  25  26 0
 3-21G
 ****
 31  33  36  37  38  39  40  41  42  43  44  45  46 0
 3-21G
 ****


