%nproc=1
%NoSave
%Mem=1900MB
#P OB98/GEN NMR

erre ene a

0 1
  C      -25.752     260.065    -524.844
  O      -24.786     259.203    -524.272
  H      -25.280     261.030    -525.048
  H      -26.584     260.220    -524.153
  H      -26.120     259.654    -525.788
  P      -25.239     257.717    -523.879
  C      -25.663     258.527    -521.459
  O      -26.200     257.871    -522.601
  C      -26.710     258.573    -520.340
  O      -27.900     259.245    -520.795
  C      -27.145     257.196    -519.846
  O      -26.195     256.674    -518.927
  C      -28.475     257.546    -519.200
  O      -28.246     258.170    -517.923
  C      -29.040     258.571    -520.198
  N      -33.530     256.535    -521.408
  C      -33.047     256.952    -520.176
  N      -33.855     256.757    -519.120
  N      -31.862     257.489    -520.009
  C      -31.137     257.555    -521.152
  C      -31.504     257.156    -522.419
  C      -32.834     256.616    -522.609
  O      -33.304     256.249    -523.675
  N      -30.472     257.319    -523.313
  C      -29.498     257.846    -522.591
  N      -29.845     257.995    -521.265
  O      -24.135     256.716    -523.685
  O      -26.237     257.291    -525.052
  H      -29.119     258.307    -517.510
  H      -25.769     256.820    -525.762
  H      -34.435     256.112    -521.467
  H      -28.527     258.137    -522.974
  H      -29.657     259.337    -519.707
  H      -29.108     256.677    -519.024
  H      -34.629     256.105    -519.148
  H      -27.330     256.504    -520.674
  H      -33.502     257.010    -518.204
  H      -26.290     259.173    -519.518
  H      -25.379     259.544    -521.764
  H      -24.772     258.001    -521.104
  P      -25.538     255.225    -519.146
  C      -26.751     254.060    -517.180
  O      -26.628     254.186    -518.597
  O      -24.169     255.060    -518.576
  O      -25.610     254.989    -520.733
  H      -24.819     255.336    -521.216
  H      -27.508     253.339    -516.950
  H      -27.020     255.006    -516.760
  H      -25.817     253.740    -516.768

 6  7  8  9  10  11  12  13  14  15  26  29  33  34 0
 6-311+G(2d,p)
 ****
 36  38  39  40  41 0
 6-311+G(2d,p)
 ****
 1  2  3  4  5  16  17  18  19  20  21  22  23  24  25 0
 3-21G
 ****
 27  28  30  31  32  35  37  42  43  44  45  46  47 0
 3-21G
 ****
 48  49 0
 3-21G
 ****


