%nproc=1
%NoSave
%Mem=1900MB
#P OB98/GEN NMR

erre ene a

0 1
  C      113.358    -222.882    -424.476
  O      112.949    -223.698    -425.561
  H      112.997    -221.861    -424.623
  H      112.923    -223.283    -423.554
  H      114.448    -222.886    -424.382
  P      113.614    -223.390    -426.986
  C      111.356    -222.221    -427.565
  O      112.389    -223.109    -427.992
  C      110.004    -222.672    -428.127
  O      110.070    -222.638    -429.582
  C      109.610    -224.092    -427.714
  O      108.197    -224.124    -427.466
  C      109.938    -224.931    -428.939
  O      109.166    -226.112    -429.004
  C      109.649    -223.928    -430.064
  N      109.281    -226.241    -434.611
  C      108.362    -225.966    -433.655
  N      108.545    -225.340    -432.478
  C      109.828    -224.938    -432.342
  C      110.872    -225.142    -433.230
  C      110.566    -225.840    -434.411
  N      111.498    -226.157    -435.370
  N      112.045    -224.607    -432.719
  C      111.710    -224.102    -431.552
  N      110.379    -224.272    -431.284
  O      114.142    -224.840    -427.435
  O      114.705    -222.373    -426.991
  H      108.213    -225.864    -429.055
  H      114.987    -225.036    -426.980
  H      107.347    -226.307    -433.867
  H      112.390    -223.599    -430.865
  H      108.588    -223.883    -430.330
  H      110.993    -225.210    -428.917
  H      110.141    -224.436    -426.822
  H      109.245    -221.937    -427.825
  H      111.590    -221.214    -427.919
  H      111.206    -226.714    -436.157
  H      112.463    -225.920    -435.201
  H      111.322    -222.219    -426.471
  P      107.717    -223.810    -425.956
  C      106.058    -225.802    -426.048
  O      106.247    -224.424    -425.754
  O      107.473    -222.225    -425.967
  O      108.727    -224.202    -424.921
  H      107.924    -221.812    -425.212
  H      105.037    -226.068    -425.868
  H      106.696    -226.391    -425.422
  H      106.299    -225.984    -427.075

 6  7  8  9  10  11  12  13  14  15  25  28  32  33  34  35 0
 6-311+G(2d,p)
 ****
 36  39  40 0
 6-311+G(2d,p)
 ****
 1  2  3  4  5  16  17  18  19  20  21  22  23  24 0
 3-21G
 ****
 26  27  29  30  31  37  38  41  42  43  44  45  46  47 0
 3-21G
 ****
 48 0
 3-21G
 ****


