%nproc=1
%NoSave
%Mem=1900MB
#P OB98/GEN NMR

erre ene a

0 1
  C       41.135     111.825      19.040
  O       41.505     113.030      19.671
  P       40.734     114.396      19.338
  C       40.333     115.742      17.181
  O       41.176     114.810      17.851
  C       41.167     116.660      16.294
  O       41.962     117.577      17.091
  C       42.190     115.933      15.433
  O       41.698     115.082      14.421
  C       43.084     117.082      14.998
  O       42.517     117.797      13.901
  C       43.094     117.965      16.273
  N       44.354     117.855      17.002
  C       45.436     118.534      16.453
  O       45.371     119.195      15.418
  N       46.624     118.405      17.121
  C       46.840     117.642      18.232
  O       47.943     117.536      18.754
  C       45.663     116.935      18.756
  C       44.491     117.070      18.130
  O       40.890     115.476      20.355
  O       39.221     113.920      19.122
  H       41.672     118.180      14.205
  H       39.096     113.276      18.402
  H       47.424     118.878      16.733
  H       45.797     116.332      19.645
  H       43.609     116.556      18.498
  H       42.942     119.018      16.007
  H       44.071     116.732      14.680
  H       42.792     115.290      16.089
  H       40.487     117.266      15.690
  H       39.810     116.347      17.928
  H       39.579     115.200      16.599
  P       42.517     113.831      13.846
  C       44.722     113.494      12.526
  O       43.705     114.387      12.924
  O       41.714     112.689      13.318
  O       43.316     113.344      15.152
  H       43.445     112.379      15.104
  H       45.465     114.049      11.946
  H       44.310     112.701      11.896
  H       45.216     113.060      13.400
  H       41.762     111.032      19.391
  H       41.249     111.927      17.981
  H       40.114     111.601      19.269

 3  4  5  6  7  8  9  10  11  12  13  23  28  29  30  31  32 0
 6-311+G(2d,p)
 ****
 33  34 0
 6-311+G(2d,p)
 ****
 1  2  14  15  16  17  18  19  20  21  22  24  25  26  27 0
 3-21G
 ****
 35  36  37  38  39  40  41  42  43  44  45 0
 3-21G
 ****


