%nproc=1
%NoSave
%Mem=1900MB
#P OB98/GEN NMR

erre ene a

0 1
  C       94.992     861.201    -472.095
  O       94.019     860.522    -471.294
  P       94.531     859.863    -469.917
  C       94.367     857.415    -470.753
  O       95.219     858.480    -470.340
  C       95.117     856.074    -470.711
  O       95.992     855.978    -471.860
  C       96.033     855.884    -469.501
  O       95.306     855.485    -468.352
  C       96.956     854.798    -469.993
  O       96.322     853.518    -469.823
  C       97.108     855.136    -471.488
  N      101.817     854.672    -473.302
  C      100.839     853.713    -473.137
  N      101.135     852.460    -473.534
  N       99.659     853.966    -472.624
  C       99.475     855.267    -472.306
  C      100.375     856.309    -472.413
  C      101.694     856.000    -472.949
  O      102.629     856.813    -473.037
  N       99.825     857.492    -472.005
  C       98.591     857.183    -471.692
  N       98.338     855.839    -471.817
  O       93.162     859.388    -469.226
  O       95.326     860.755    -469.031
  H       96.825     852.867    -470.341
  H       93.284     859.350    -468.244
  H      102.690     854.434    -473.709
  H       97.841     857.894    -471.343
  H       97.050     854.219    -472.103
  H       97.904     854.763    -469.437
  H      101.989     852.228    -474.058
  H       96.610     856.811    -469.308
  H      100.397     851.759    -473.456
  H       94.396     855.266    -470.769
  H       94.023     857.581    -471.776
  H       93.501     857.372    -470.088
  P       96.057     855.648    -466.938
  C       96.002     853.107    -466.422
  O       96.798     854.249    -466.670
  O       94.848     855.659    -465.883
  O       96.892     856.873    -466.834
  H       95.105     856.149    -465.066
  H       95.075     853.105    -467.022
  H       95.752     853.057    -465.370
  H       96.565     852.200    -466.702
  H       94.522     861.589    -472.975
  H       95.764     860.515    -472.376
  H       95.417     862.006    -471.533

 3  4  5  6  7  8  9  10  11  12  23  26  30  31  33  0
 6-311+G(2d,p)
 ****
 35  36  37  38 0
 6-311+G(2d,p)
 ****
 1  2  13  14  15  16  17  18  19  20  21  22  24  25  27  28  29 0
 3-21G
 ****
 32  34  39  40  41  42  43  44  45  46  47  48  49 0
 3-21G
 ****


