%nproc=1
%NoSave
%Mem=1900MB
#P OB98/GEN NMR

erre ene a

0 1
  C     -238.567     211.896     150.661
  O     -239.105     213.112     150.185
  H     -237.700     211.632     150.049
  H     -239.309     211.096     150.589
  H     -238.244     212.011     151.701
  P     -240.460     213.619     150.886
  C     -239.533     215.928     151.669
  O     -239.938     214.617     152.032
  C     -238.117     216.194     152.166
  O     -237.173     215.312     151.516
  C     -237.602     217.604     151.888
  O     -238.117     218.577     152.779
  C     -236.112     217.383     152.092
  O     -235.828     217.275     153.498
  C     -235.918     216.030     151.374
  N     -235.567     216.178     149.958
  C     -234.205     216.336     149.663
  O     -233.366     216.347     150.561
  N     -233.831     216.510     148.352
  C     -234.727     216.507     147.418
  N     -234.296     216.686     146.139
  C     -236.168     216.332     147.679
  C     -236.512     216.175     148.955
  O     -240.943     212.344     151.725
  O     -241.494     214.191     149.977
  H     -236.405     216.567     153.845
  H     -241.697     212.594     152.313
  H     -236.881     216.349     146.867
  H     -237.554     216.039     149.227
  H     -235.141     215.434     151.866
  H     -235.500     218.196     151.705
  H     -237.775     217.898     150.847
  H     -238.090     215.966     153.240
  H     -233.310     216.863     145.995
  H     -240.231     216.641     152.121
  H     -234.923     216.849     145.363
  H     -239.563     216.042     150.580
  P     -239.003     219.759     152.151
  C     -241.230     219.696     153.499
  O     -240.540     219.327     152.311
  O     -238.741     219.613     150.581
  O     -238.671     221.130     152.648
  H     -238.746     220.485     150.142
  H     -242.237     219.337     153.453
  H     -241.235     220.762     153.592
  H     -240.737     219.267     154.346

 6  7  8  9  10  11  12  13  14  15  16  26  30  31  32  33  35 0
 6-311+G(2d,p)
 ****
 37  38 0
 6-311+G(2d,p)
 ****
 1  2  3  4  5  17  18  19  20  21  22  23  24  25 0
 3-21G
 ****
 27  28  29  34  36  39  40  41  42  43  44  45  46 0
 3-21G
 ****


