%nproc=1
%NoSave
%Mem=1900MB
#P OB98/GEN NMR

erre ene a

0 1
  C       61.674     217.463    -707.895
  O       61.894     216.574    -706.823
  H       62.556     218.098    -708.012
  H       60.815     218.104    -707.681
  H       61.506     216.922    -708.827
  P       60.836     215.398    -706.558
  C       59.606     216.785    -704.762
  O       59.501     216.093    -706.000
  C       58.218     217.215    -704.278
  O       58.308     217.837    -702.984
  C       57.528     218.231    -705.187
  O       57.024     217.610    -706.361
  C       56.469     218.776    -704.235
  O       55.336     217.897    -704.168
  C       57.241     218.810    -702.896
  N       57.760     220.134    -702.562
  C       56.852     221.045    -702.026
  O       55.657     220.788    -701.878
  N       57.352     222.270    -701.700
  C       58.637     222.700    -701.913
  O       59.028     223.828    -701.645
  C       59.550     221.713    -702.507
  C       59.091     220.492    -702.798
  O       61.326     214.237    -705.749
  O       60.406     214.941    -708.037
  H       55.662     217.029    -703.867
  H       60.887     214.132    -708.279
  H       56.714     222.954    -701.320
  H       60.574     222.008    -702.694
  H       59.728     219.754    -703.240
  H       56.585     218.484    -702.069
  H       56.080     219.748    -704.554
  H       58.225     219.039    -705.443
  H       57.604     216.305    -704.183
  H       60.225     217.677    -704.904
  H       60.085     216.132    -704.028
  P       56.947     218.414    -707.745
  C       54.834     219.750    -707.164
  O       56.223     219.823    -707.453
  O       56.380     217.640    -708.894
  O       58.478     218.829    -708.033
  H       58.835     218.270    -708.746
  H       54.454     220.735    -706.987
  H       54.682     219.147    -706.293
  H       54.319     219.313    -707.994

 6  7  8  9  10  11  12  13  14  15  16  26  31  32  33  34  35 0
 6-311+G(2d,p)
 ****
 36  37 0
 6-311+G(2d,p)
 ****
 1  2  3  4  5  17  18  19  20  21  22  23  24  25 0
 3-21G
 ****
 27  28  29  30  38  39  40  41  42  43  44  45 0
 3-21G
 ****


