%nproc=1
%NoSave
%Mem=1900MB
#P OB98/GEN NMR

erre ene a

0 1
  C     -307.726    1283.998     679.931
  O     -307.440    1284.748     681.098
  H     -308.705    1283.530     680.043
  H     -306.974    1283.209     679.801
  H     -307.744    1284.641     679.046
  P     -306.145    1285.682     681.116
  C     -305.593    1286.042     683.616
  O     -306.232    1286.565     682.450
  C     -306.060    1286.806     684.869
  O     -305.804    1288.230     684.664
  C     -307.554    1286.650     685.184
  O     -307.704    1286.764     686.613
  C     -308.128    1287.868     684.471
  O     -309.458    1288.127     684.835
  C     -307.068    1288.909     684.873
  N     -307.104    1290.152     684.134
  C     -308.004    1291.132     684.549
  O     -308.765    1291.009     685.506
  N     -308.019    1292.290     683.816
  C     -307.227    1292.567     682.742
  O     -307.255    1293.631     682.145
  C     -306.303    1291.503     682.345
  C     -306.279    1290.364     683.044
  O     -305.874    1286.456     679.867
  O     -304.948    1284.659     681.439
  H     -304.458    1284.449     680.623
  H     -309.473    1288.540     685.731
  H     -308.663    1293.005     684.102
  H     -305.661    1291.679     681.484
  H     -305.601    1289.567     682.775
  H     -307.138    1289.120     685.949
  H     -308.125    1287.707     683.396
  H     -307.974    1285.699     684.848
  H     -305.440    1286.490     685.713
  H     -304.512    1286.153     683.491
  H     -305.841    1284.980     683.708
  P     -307.173    1285.649     687.643
  C     -308.973    1286.193     689.415
  O     -307.587    1286.107     689.123
  O     -305.723    1285.326     687.489
  O     -308.074    1284.360     687.361
  H     -307.579    1283.547     687.625
  H     -309.105    1286.507     690.429
  H     -309.427    1285.234     689.277
  H     -309.432    1286.903     688.759

 6  7  8  9  10  11  12  13  14  15  16  27  31  32  33  34  35 0
 6-311+G(2d,p)
 ****
 36  37 0
 6-311+G(2d,p)
 ****
 1  2  3  4  5  17  18  19  20  21  22  23  24  25 0
 3-21G
 ****
 26  28  29  30  38  39  40  41  42  43  44  45 0
 3-21G
 ****


