%nproc=1
%NoSave
%Mem=1900MB
#P OB98/GEN NMR

erre ene a

0 1
  C     -249.078    -147.383     191.543
  O     -248.236    -146.345     191.078
  H     -250.095    -147.202     191.178
  H     -249.093    -147.381     192.636
  H     -248.738    -148.357     191.175
  P     -246.656    -146.564     191.230
  C     -246.554    -144.437     192.710
  O     -246.200    -145.804     192.576
  C     -245.615    -143.737     193.694
  O     -245.998    -144.105     195.048
  C     -244.136    -144.109     193.508
  O     -243.334    -142.942     193.731
  C     -243.884    -145.118     194.621
  O     -242.512    -145.173     195.010
  C     -244.824    -144.608     195.710
  N     -244.877    -145.856     200.600
  C     -244.551    -144.660     199.987
  N     -244.173    -143.647     200.797
  N     -244.587    -144.475     198.691
  C     -245.019    -145.565     198.007
  C     -245.366    -146.805     198.496
  C     -245.294    -147.008     199.932
  O     -245.550    -148.049     200.531
  N     -245.716    -147.659     197.483
  C     -245.583    -146.937     196.381
  N     -245.167    -145.661     196.650
  O     -246.047    -145.652     190.059
  O     -246.188    -147.978     191.118
  H     -242.262    -144.275     195.330
  H     -245.598    -146.215     189.403
  H     -244.817    -145.945     201.602
  H     -245.758    -147.291     195.373
  H     -244.380    -143.785     196.297
  H     -244.185    -146.116     194.284
  H     -244.166    -143.704     201.807
  H     -243.916    -144.521     192.521
  H     -243.965    -142.748     200.372
  H     -245.762    -142.654     193.609
  H     -247.586    -144.373     193.080
  H     -246.498    -143.950     191.729
  P     -242.860    -142.131     192.427
  C     -240.381    -142.673     192.974
  O     -241.410    -142.681     191.992
  O     -242.547    -140.667     193.003
  O     -243.880    -142.081     191.337
  H     -243.237    -140.042     192.709
  H     -239.480    -143.063     192.549
  H     -240.676    -143.280     193.804
  H     -240.214    -141.670     193.307

 6  7  8  9  10  11  12  13  14  15  26  29  33  34 0
 6-311+G(2d,p)
 ****
 36  38  39  40  41 0
 6-311+G(2d,p)
 ****
 1  2  3  4  5  16  17  18  19  20  21  22  23  24  25 0
 3-21G
 ****
 27  28  30  31  32  35  37  42  43  44  45  46  47 0
 3-21G
 ****
 48  49 0
 3-21G
 ****


