%nproc=1
%NoSave
%Mem=1900MB
#P OB98/GEN NMR

erre ene a

0 1
  C     -232.639    -114.186      60.804
  O     -233.951    -113.955      60.329
  P     -234.403    -114.546      58.913
  C     -236.883    -114.290      59.534
  O     -235.867    -113.976      58.588
  C     -238.213    -114.535      58.823
  O     -238.061    -115.544      57.806
  C     -239.324    -115.040      59.738
  O     -239.853    -113.984      60.519
  C     -240.296    -115.631      58.723
  O     -241.113    -114.601      58.145
  C     -239.337    -116.213      57.673
  N     -241.754    -120.701      57.843
  C     -242.212    -119.430      57.856
  N     -241.501    -118.284      57.847
  C     -240.182    -118.547      57.848
  C     -239.567    -119.789      57.871
  C     -240.413    -120.909      57.843
  N     -239.960    -122.210      57.769
  N     -238.190    -119.646      57.898
  C     -237.985    -118.344      57.902
  N     -239.152    -117.643      57.806
  O     -234.248    -116.021      58.754
  O     -233.476    -113.766      57.864
  H     -241.424    -114.033      58.875
  H     -232.930    -114.409      57.374
  H     -243.291    -119.321      57.865
  H     -237.017    -117.865      57.952
  H     -239.688    -116.023      56.650
  H     -240.968    -116.368      59.168
  H     -238.939    -115.841      60.381
  H     -238.512    -113.597      58.330
  H     -236.984    -113.447      60.227
  H     -240.652    -122.924      57.608
  H     -239.004    -122.366      57.466
  H     -236.587    -115.179      60.100
  P     -240.360    -114.273      62.011
  C     -239.595    -111.882      62.532
  O     -240.610    -112.850      62.702
  O     -239.526    -115.228      62.803
  O     -241.844    -114.836      61.798
  H     -242.049    -115.477      62.502
  H     -238.766    -112.097      63.208
  H     -240.007    -110.898      62.773
  H     -239.236    -111.872      61.498
  H     -232.518    -113.719      61.759
  H     -231.932    -113.775      60.114
  H     -232.474    -115.239      60.898

 3  4  5  6  7  8  9  10  11  12  22  25  29  30  31  32 0
 6-311+G(2d,p)
 ****
 33  36  37 0
 6-311+G(2d,p)
 ****
 1  2  13  14  15  16  17  18  19  20  21  23  24  26 0
 3-21G
 ****
 27  28  34  35  38  39  40  41  42  43  44  45  46  47  48 0
 3-21G
 ****


