%nproc=1
%NoSave
%Mem=1900MB
#P OB98/GEN NMR

erre ene a

0 1
  C     -355.431     200.802      17.189
  O     -354.669     201.091      18.345
  H     -355.866     201.737      16.814
  H     -356.244     200.115      17.431
  H     -354.800     200.371      16.404
  P     -353.811     199.915      19.021
  C     -351.808     200.451      17.488
  O     -352.719     199.459      17.940
  C     -350.377     200.042      17.841
  O     -350.052     198.774      17.229
  C     -349.320     201.022      17.355
  O     -349.287     202.182      18.173
  C     -348.068     200.151      17.422
  O     -347.578     200.056      18.767
  C     -348.630     198.782      16.949
  N     -348.369     198.527      15.522
  C     -347.039     198.310      15.177
  O     -346.112     198.326      15.992
  N     -346.796     198.109      13.842
  C     -347.723     198.199      12.840
  O     -347.432     198.239      11.646
  C     -349.126     198.362      13.276
  C     -349.375     198.536      14.581
  O     -354.602     198.803      19.633
  O     -352.927     200.676      20.120
  H     -353.330     200.553      21.001
  H     -346.833     199.422      18.745
  H     -345.832     197.996      13.571
  H     -349.895     198.373      12.514
  H     -350.401     198.683      14.921
  H     -348.184     197.968      17.531
  H     -347.253     200.542      16.809
  H     -349.508     201.293      16.308
  H     -350.313     199.916      18.932
  H     -352.051     201.395      17.991
  H     -351.917     200.577      16.404
  P     -348.763     203.588      17.608
  C     -351.077     204.685      17.448
  O     -349.936     204.234      16.722
  O     -347.432     203.538      16.934
  O     -348.714     204.537      18.898
  H     -347.824     204.941      18.964
  H     -351.794     205.095      16.767
  H     -350.780     205.437      18.149
  H     -351.514     203.861      17.973

 6  7  8  9  10  11  12  13  14  15  16  27  31  32  33  34  35 0
 6-311+G(2d,p)
 ****
 36  37 0
 6-311+G(2d,p)
 ****
 1  2  3  4  5  17  18  19  20  21  22  23  24  25 0
 3-21G
 ****
 26  28  29  30  38  39  40  41  42  43  44  45 0
 3-21G
 ****


