%nproc=1
%NoSave
%Mem=1900MB
#P OB98/GEN NMR

erre ene a

0 1
  C      220.184    -421.286    -264.107
  O      220.305    -419.874    -264.011
  H      219.415    -421.617    -263.404
  H      221.127    -421.761    -263.834
  H      219.893    -421.582    -265.118
  P      221.300    -419.118    -265.009
  C      219.407    -417.939    -266.290
  O      220.485    -418.858    -266.373
  C      219.814    -416.587    -266.871
  O      219.984    -416.721    -268.306
  C      218.785    -415.475    -266.625
  O      219.482    -414.254    -266.367
  C      218.046    -415.376    -267.947
  O      217.490    -414.079    -268.160
  C      219.151    -415.742    -268.945
  N      217.327    -414.450    -273.482
  C      217.885    -413.667    -272.482
  N      217.941    -412.337    -272.721
  N      218.341    -414.151    -271.357
  C      218.229    -415.490    -271.267
  C      217.702    -416.374    -272.176
  C      217.185    -415.832    -273.405
  O      216.675    -416.478    -274.318
  N      217.745    -417.668    -271.696
  C      218.296    -417.561    -270.506
  N      218.603    -416.263    -270.188
  O      222.632    -419.767    -265.203
  O      221.441    -417.654    -264.377
  H      216.973    -414.122    -268.998
  H      222.266    -417.572    -263.874
  H      216.987    -414.030    -274.321
  H      218.494    -418.377    -269.829
  H      219.766    -414.874    -269.208
  H      217.231    -416.110    -267.976
  H      217.629    -411.904    -273.571
  H      218.109    -415.695    -265.792
  H      218.368    -411.744    -272.013
  H      220.789    -416.307    -266.461
  H      219.130    -417.824    -265.234
  H      218.546    -418.339    -266.839
  P      219.580    -413.719    -264.864
  C      221.933    -414.653    -264.388
  O      220.550    -414.701    -264.044
  O      218.280    -413.411    -264.202
  O      220.472    -412.392    -265.014
  H      220.215    -411.754    -264.318
  H      222.476    -415.346    -263.780
  H      222.307    -413.664    -264.224
  H      222.053    -414.913    -265.419

 6  7  8  9  10  11  12  13  14  15  26  29  33  34 0
 6-311+G(2d,p)
 ****
 36  38  39  40  41 0
 6-311+G(2d,p)
 ****
 1  2  3  4  5  16  17  18  19  20  21  22  23  24  25 0
 3-21G
 ****
 27  28  30  31  32  35  37  42  43  44  45  46  47 0
 3-21G
 ****
 48  49 0
 3-21G
 ****


