%nproc=1
%NoSave
%Mem=1900MB
#P OB98/GEN NMR

erre ene a

0 1
  C       28.035     459.154    -194.205
  O       26.726     459.312    -193.697
  H       28.061     458.259    -194.832
  H       28.747     459.028    -193.386
  H       28.318     460.015    -194.816
  P       26.376     460.626    -192.851
  C       26.819     459.142    -190.791
  O       25.988     460.139    -191.374
  C       26.028     458.351    -189.753
  O       25.701     459.190    -188.622
  C       24.697     457.813    -190.267
  O       24.897     456.690    -191.101
  C       23.987     457.525    -188.951
  O       24.439     456.288    -188.380
  C       24.444     458.723    -188.085
  N       23.456     459.802    -188.037
  C       22.412     459.638    -187.130
  O       22.298     458.655    -186.402
  N       21.469     460.633    -187.122
  C       21.424     461.696    -187.978
  O       20.451     462.437    -188.086
  C       22.590     461.856    -188.862
  C       23.530     460.908    -188.861
  O       25.404     461.565    -193.484
  O       27.803     461.322    -192.632
  H       27.903     462.058    -193.264
  H       24.222     455.590    -189.028
  H       20.682     460.502    -186.504
  H       22.623     462.724    -189.509
  H       24.383     460.988    -189.526
  H       24.642     458.398    -187.055
  H       22.905     457.444    -189.072
  H       24.152     458.601    -190.797
  H       26.663     457.532    -189.390
  H       27.665     459.638    -190.304
  H       27.195     458.482    -191.579
  P       24.610     456.767    -192.674
  C       22.711     455.047    -192.746
  O       24.041     455.344    -193.146
  O       25.742     457.287    -193.500
  O       23.328     457.726    -192.795
  H       23.529     458.446    -193.424
  H       22.436     454.080    -193.113
  H       22.045     455.783    -193.146
  H       22.650     455.054    -191.678

 6  7  8  9  10  11  12  13  14  15  16  27  31  32  33  34  35 0
 6-311+G(2d,p)
 ****
 36  37 0
 6-311+G(2d,p)
 ****
 1  2  3  4  5  17  18  19  20  21  22  23  24  25 0
 3-21G
 ****
 26  28  29  30  38  39  40  41  42  43  44  45 0
 3-21G
 ****


