%nproc=1
%NoSave
%Mem=1900MB
#P OB98/GEN NMR

erre ene a

0 1
  C      -28.521     236.664     -68.351
  O      -28.501     235.890     -69.532
  H      -29.265     237.456     -68.463
  H      -27.544     237.126     -68.193
  H      -28.790     236.053     -67.484
  P      -27.707     234.498     -69.538
  C      -29.149     233.546     -71.454
  O      -27.846     233.915     -71.025
  C      -29.091     232.943     -72.861
  O      -28.714     234.001     -73.794
  C      -28.059     231.807     -73.000
  O      -28.558     230.846     -73.938
  C      -26.875     232.545     -73.592
  O      -25.972     231.671     -74.221
  C      -27.578     233.519     -74.532
  N      -26.686     234.595     -74.953
  C      -26.103     234.476     -76.210
  O      -26.294     233.520     -76.962
  N      -25.222     235.462     -76.560
  C      -24.792     236.470     -75.748
  O      -23.941     237.281     -76.087
  C      -25.402     236.518     -74.410
  C      -26.310     235.597     -74.080
  O      -28.067     233.535     -68.455
  O      -26.164     234.922     -69.488
  H      -26.368     231.310     -75.035
  H      -25.618     234.182     -69.161
  H      -24.800     235.394     -77.473
  H      -25.072     237.298     -73.735
  H      -26.767     235.590     -73.096
  H      -27.957     232.998     -75.422
  H      -26.333     233.081     -72.805
  H      -27.830     231.315     -72.051
  H      -30.093     232.606     -73.148
  H      -29.776     234.446     -71.461
  H      -29.576     232.822     -70.752
  P      -29.353     229.535     -73.466
  C      -31.039     229.389     -75.401
  O      -29.952     228.749     -74.740
  O      -30.354     229.781     -72.381
  O      -28.207     228.551     -72.934
  H      -28.488     228.166     -72.082
  H      -31.359     228.788     -76.226
  H      -30.725     230.347     -75.759
  H      -31.851     229.513     -74.715

 6  7  8  9  10  11  12  13  14  15  16  26  31  32  33  34  35 0
 6-311+G(2d,p)
 ****
 36  37 0
 6-311+G(2d,p)
 ****
 1  2  3  4  5  17  18  19  20  21  22  23  24  25 0
 3-21G
 ****
 27  28  29  30  38  39  40  41  42  43  44  45 0
 3-21G
 ****


