%nproc=1
%NoSave
%Mem=1900MB
#P OB98/GEN NMR

erre ene a

0 1
  C       14.876      25.549     464.452
  O       15.462      24.898     463.343
  H       15.330      26.538     464.555
  H       15.058      24.983     465.369
  H       13.797      25.672     464.298
  P       15.019      23.392     463.007
  C       17.132      21.947     462.666
  O       16.156      22.778     462.051
  C       18.527      22.260     462.098
  O       18.849      23.631     462.461
  C       19.617      21.339     462.673
  O       20.401      20.702     461.659
  C       20.348      22.232     463.668
  O       21.692      21.872     463.911
  C       20.150      23.637     463.081
  N       20.252      24.714     464.070
  C       21.492      25.311     464.246
  O       22.509      25.021     463.618
  N       21.538      26.298     465.197
  C       20.502      26.733     465.965
  O       20.598      27.626     466.798
  C       19.217      26.040     465.748
  C       19.145      25.082     464.825
  O       13.623      23.224     462.509
  O       15.253      22.610     464.382
  H       22.154      21.860     463.051
  H       14.394      22.469     464.831
  H       22.433      26.749     465.321
  H       18.370      26.356     466.349
  H       18.217      24.551     464.644
  H       20.899      23.832     462.304
  H       19.820      22.180     464.631
  H       19.173      20.497     463.212
  H       18.486      22.209     461.006
  H       16.870      20.904     462.459
  H       17.127      22.110     463.748
  P       20.523      19.125     461.466
  C       23.069      18.894     460.873
  O       21.720      18.833     460.442
  O       19.240      18.395     461.235
  O       21.119      18.623     462.881
  H       20.744      17.732     463.049
  H       23.716      18.670     460.051
  H       23.226      18.181     461.655
  H       23.283      19.877     461.238

 6  7  8  9  10  11  12  13  14  15  16  26  31  32  33  34  35 0
 6-311+G(2d,p)
 ****
 36  37 0
 6-311+G(2d,p)
 ****
 1  2  3  4  5  17  18  19  20  21  22  23  24  25 0
 3-21G
 ****
 27  28  29  30  38  39  40  41  42  43  44  45 0
 3-21G
 ****


