%nproc=1
%NoSave
%Mem=1900MB
#P OB98/GEN NMR

erre ene a

0 1
  C       -0.021     -10.883      10.232
  O        0.884      -9.779      10.119
  P        0.483      -8.637       9.059
  C        2.452      -9.018       7.409
  O        1.047      -9.076       7.619
  C        2.798      -8.761       5.940
  O        2.359      -9.888       5.143
  C        2.154      -7.507       5.338
  O        3.086      -6.906       4.428
  C        1.009      -8.063       4.513
  O        0.604      -7.168       3.481
  C        1.632      -9.366       4.019
  N       -1.652     -10.529       0.355
  C       -0.722      -9.512       0.414
  N       -0.676      -8.673      -0.644
  N        0.094      -9.333       1.420
  C       -0.042     -10.266       2.393
  C       -0.919     -11.327       2.444
  C       -1.843     -11.486       1.343
  O       -2.726     -12.336       1.255
  N       -0.757     -12.055       3.597
  C        0.207     -11.433       4.244
  N        0.668     -10.338       3.557
  O        1.411      -7.405       9.482
  O       -0.962      -8.267       9.092
  H       -0.043      -7.643       2.927
  H        0.860      -6.621       9.667
  H       -2.269     -10.609      -0.435
  H        0.592     -11.713       5.213
  H        2.347      -9.184       3.209
  H        0.147      -8.247       5.165
  H       -1.229      -8.792      -1.477
  H        1.824      -6.769       6.075
  H        0.031      -7.949      -0.638
  H        3.889      -8.708       5.850
  H        2.904      -9.962       7.724
  H        2.867      -8.223       8.038
  P        3.744      -5.518       4.893
  C        1.901      -4.411       3.430
  O        2.625      -4.400       4.644
  O        4.832      -5.225       3.757
  O        4.343      -5.553       6.259
  H        5.557      -4.681       4.116
  H        2.062      -5.330       2.861
  H        2.213      -3.559       2.822
  H        0.835      -4.317       3.653
  H        0.348     -11.573      10.962
  H       -0.103     -11.375       9.285
  H       -0.984     -10.526      10.533

 3  4  5  6  7  8  9  10  11  12  23  26  30  31  33  0
 6-311+G(2d,p)
 ****
 35  36  37  38 0
 6-311+G(2d,p)
 ****
 1  2  13  14  15  16  17  18  19  20  21  22  24  25  27  28  29 0
 3-21G
 ****
 32  34  39  40  41  42  43  44  45  46  47  48  49 0
 3-21G
 ****


