%nproc=1
%NoSave
%Mem=1900MB
#P OB98/GEN NMR

erre ene a

0 1
  C      -83.414     161.648     272.185
  O      -82.766     162.074     273.367
  H      -83.979     160.738     272.406
  H      -82.673     161.423     271.414
  H      -84.106     162.417     271.830
  P      -82.028     163.501     273.309
  C      -79.705     164.282     272.369
  O      -80.627     163.227     272.579
  C      -78.856     164.012     271.128
  O      -77.962     162.907     271.408
  C      -79.671     163.651     269.886
  O      -79.041     164.228     268.743
  C      -79.574     162.137     269.824
  O      -79.789     161.643     268.503
  C      -78.172     161.895     270.400
  N      -78.024     160.551     270.957
  C      -77.748     159.522     270.052
  O      -77.661     159.764     268.847
  N      -77.621     158.241     270.523
  C      -77.822     157.993     271.781
  N      -77.702     156.700     272.182
  C      -78.168     159.040     272.762
  C      -78.242     160.282     272.290
  O      -81.625     163.720     274.842
  O      -82.855     164.595     272.723
  H      -79.699     160.664     268.526
  H      -81.294     162.916     275.276
  H      -78.342     158.783     273.797
  H      -78.484     161.113     272.943
  H      -77.408     162.032     269.625
  H      -80.333     161.687     270.477
  H      -80.709     163.982     269.938
  H      -78.223     164.889     270.944
  H      -77.482     156.011     271.473
  H      -79.052     164.395     273.240
  H      -77.887     156.387     273.123
  H      -80.274     165.210     272.246
  P      -79.945     164.740     267.523
  C      -80.619     163.948     265.163
  O      -79.826     163.693     266.312
  O      -79.769     166.171     267.141
  O      -81.439     164.477     268.053
  H      -81.999     165.221     267.758
  H      -80.449     163.183     264.435
  H      -80.353     164.899     264.750
  H      -81.653     163.955     265.438

 6  7  8  9  10  11  12  13  14  15  16  26  30  31  32  33  35 0
 6-311+G(2d,p)
 ****
 37  38 0
 6-311+G(2d,p)
 ****
 1  2  3  4  5  17  18  19  20  21  22  23  24  25 0
 3-21G
 ****
 27  28  29  34  36  39  40  41  42  43  44  45  46 0
 3-21G
 ****


