%nproc=1
%NoSave
%Mem=1900MB
#P OB98/GEN NMR

erre ene a

0 1
  C      326.545    -238.400    -178.933
  O      326.266    -239.787    -178.713
  P      327.490    -240.756    -178.333
  C      329.345    -242.022    -179.609
  O      328.422    -240.937    -179.628
  C      329.678    -242.484    -181.042
  O      328.585    -243.309    -181.530
  C      329.832    -241.351    -182.066
  O      331.120    -240.769    -182.245
  C      329.500    -242.079    -183.367
  O      330.664    -242.771    -183.859
  C      328.440    -243.098    -182.952
  N      324.794    -242.977    -186.549
  C      326.046    -243.487    -186.548
  N      326.949    -243.476    -185.549
  C      326.453    -242.874    -184.458
  C      325.194    -242.306    -184.309
  C      324.343    -242.371    -185.424
  N      323.068    -241.835    -185.431
  N      325.043    -241.770    -183.046
  C      326.199    -241.993    -182.447
  N      327.079    -242.669    -183.250
  O      327.124    -242.018    -177.627
  O      328.396    -239.821    -177.394
  H      331.009    -243.297    -183.115
  H      328.778    -240.364    -176.674
  H      326.366    -243.967    -187.472
  H      326.444    -241.686    -181.439
  H      328.577    -244.073    -183.444
  H      329.185    -241.394    -184.160
  H      329.090    -240.555    -181.885
  H      330.587    -243.097    -181.023
  H      328.922    -242.855    -179.045
  H      322.542    -241.891    -186.291
  H      322.743    -241.332    -184.624
  H      330.235    -241.691    -179.060
  P      331.455    -239.310    -181.681
  C      332.021    -237.043    -182.876
  O      331.464    -238.342    -182.962
  O      332.688    -239.226    -180.836
  O      330.105    -238.896    -180.927
  H      329.349    -238.747    -181.518
  H      332.121    -236.635    -183.884
  H      333.006    -237.069    -182.403
  H      331.347    -236.398    -182.297
  H      325.637    -237.888    -179.175
  H      327.238    -238.300    -179.742
  H      326.968    -237.976    -178.046

 3  4  5  6  7  8  9  10  11  12  22  25  29  30  31  32 0
 6-311+G(2d,p)
 ****
 33  36  37 0
 6-311+G(2d,p)
 ****
 1  2  13  14  15  16  17  18  19  20  21  23  24  26 0
 3-21G
 ****
 27  28  34  35  38  39  40  41  42  43  44  45  46  47  48 0
 3-21G
 ****


