%nproc=1
%NoSave
%Mem=1900MB
#P OB98/GEN NMR

erre ene a

0 1
  C     -587.864     951.245    -155.207
  O     -587.319     950.226    -156.023
  P     -587.313     948.725    -155.434
  C     -587.396     947.401    -157.670
  O     -586.613     947.823    -156.563
  C     -586.583     946.460    -158.563
  O     -585.680     947.206    -159.398
  C     -585.717     945.459    -157.820
  O     -586.452     944.335    -157.376
  C     -584.732     945.062    -158.899
  O     -585.342     944.114    -159.788
  C     -584.495     946.404    -159.647
  N     -579.910     948.144    -161.030
  C     -580.811     947.414    -161.690
  N     -582.016     946.965    -161.239
  C     -582.209     947.343    -159.964
  C     -581.374     948.069    -159.155
  C     -580.160     948.491    -159.735
  N     -579.236     949.272    -159.075
  N     -581.911     948.254    -157.903
  C     -583.078     947.665    -157.966
  N     -583.328     947.105    -159.178
  O     -588.862     948.311    -155.534
  O     -586.791     948.591    -154.057
  H     -585.646     943.367    -159.233
  H     -589.053     947.591    -154.903
  H     -580.567     947.132    -162.697
  H     -583.804     947.621    -157.144
  H     -584.406     946.264    -160.727
  H     -583.822     944.599    -158.511
  H     -585.186     945.945    -156.986
  H     -587.292     945.935    -159.230
  H     -587.693     948.277    -158.261
  H     -578.491     949.690    -159.610
  H     -579.521     949.704    -158.191
  H     -588.293     946.897    -157.308
  P     -585.803     943.464    -156.193
  C     -588.048     942.693    -155.110
  O     -586.915     942.327    -155.854
  O     -585.869     944.448    -154.935
  O     -584.428     942.989    -156.482
  H     -585.172     944.208    -154.287
  H     -588.811     941.917    -155.231
  H     -588.464     943.642    -155.456
  H     -587.790     942.783    -154.045
  H     -587.804     952.183    -155.719
  H     -587.313     951.302    -154.292
  H     -588.888     951.021    -154.993

 3  4  5  6  7  8  9  10  11  12  22  25  29  30  31  32 0
 6-311+G(2d,p)
 ****
 33  36  37 0
 6-311+G(2d,p)
 ****
 1  2  13  14  15  16  17  18  19  20  21  23  24  26 0
 3-21G
 ****
 27  28  34  35  38  39  40  41  42  43  44  45  46  47  48 0
 3-21G
 ****


