%nproc=1
%NoSave
%Mem=1900MB
#P OB98/GEN NMR

erre ene a

0 1
  C     -206.484    -979.991     414.385
  O     -206.381    -978.662     414.848
  H     -207.048    -980.601     415.101
  H     -207.020    -979.989     413.429
  H     -205.489    -980.427     414.228
  P     -205.610    -978.442     416.235
  C     -205.863    -980.137     418.190
  O     -206.496    -979.184     417.351
  C     -206.909    -980.884     419.013
  O     -207.669    -981.778     418.165
  C     -206.338    -981.758     420.124
  O     -206.014    -981.004     421.287
  C     -207.506    -982.684     420.383
  O     -208.513    -982.004     421.158
  C     -208.020    -982.938     418.955
  N     -208.989    -987.100     416.132
  C     -209.803    -986.120     416.594
  N     -209.464    -985.053     417.341
  C     -208.148    -985.046     417.611
  C     -207.205    -985.993     417.205
  C     -207.675    -987.056     416.431
  N     -206.860    -988.072     415.973
  N     -205.961    -985.672     417.716
  C     -206.138    -984.535     418.362
  N     -207.444    -984.132     418.339
  O     -205.850    -976.893     416.556
  O     -204.159    -978.807     416.246
  H     -208.892    -981.312     420.586
  H     -205.180    -976.572     417.190
  H     -210.845    -986.205     416.329
  H     -205.355    -983.984     418.877
  H     -209.116    -983.050     418.915
  H     -207.231    -983.580     420.934
  H     -205.481    -982.345     419.775
  H     -207.613    -980.145     419.429
  H     -205.177    -979.619     418.862
  H     -207.321    -988.873     415.586
  H     -205.912    -988.119     416.313
  H     -205.300    -980.843     417.574
  P     -204.761    -981.500     422.163
  C     -204.532    -983.440     423.883
  O     -205.368    -982.468     423.290
  O     -204.357    -980.191     422.979
  O     -203.629    -982.070     421.368
  H     -203.404    -980.219     423.214
  H     -205.090    -983.996     424.608
  H     -203.707    -982.956     424.362
  H     -204.167    -984.105     423.128

 6  7  8  9  10  11  12  13  14  15  25  28  32  33  34  35 0
 6-311+G(2d,p)
 ****
 36  39  40 0
 6-311+G(2d,p)
 ****
 1  2  3  4  5  16  17  18  19  20  21  22  23  24 0
 3-21G
 ****
 26  27  29  30  31  37  38  41  42  43  44  45  46  47 0
 3-21G
 ****
 48 0
 3-21G
 ****


