%nproc=1
%NoSave
%Mem=1900MB
#P OB98/GEN NMR

erre ene a

0 1
  C     -400.622    -590.035     171.707
  O     -399.419    -590.377     171.048
  H     -400.433    -589.999     172.780
  H     -401.396    -590.787     171.511
  H     -400.966    -589.052     171.379
  P     -399.436    -590.564     169.455
  C     -397.504    -592.243     169.108
  O     -397.933    -590.889     169.011
  C     -396.031    -592.371     168.707
  O     -395.936    -592.057     167.291
  C     -395.126    -591.389     169.469
  O     -394.015    -592.023     170.103
  C     -394.826    -590.307     168.433
  O     -393.605    -589.614     168.639
  C     -394.908    -591.064     167.103
  N     -395.208    -590.216     165.956
  C     -394.181    -589.413     165.462
  O     -393.035    -589.377     165.909
  N     -394.513    -588.620     164.387
  C     -395.736    -588.549     163.786
  O     -395.962    -587.823     162.830
  C     -396.785    -589.405     164.366
  C     -396.484    -590.184     165.402
  O     -400.093    -589.464     168.681
  O     -400.190    -591.965     169.235
  H     -393.579    -589.334     169.576
  H     -401.106    -591.803     168.950
  H     -393.777    -588.029     164.025
  H     -397.769    -589.367     163.918
  H     -397.233    -590.830     165.848
  H     -393.971    -591.582     166.892
  H     -395.621    -589.560     168.477
  H     -395.660    -590.925     170.318
  H     -395.716    -593.405     168.844
  H     -398.138    -592.843     168.446
  H     -397.631    -592.589     170.144
  P     -394.091    -592.873     171.453
  C     -391.722    -592.796     172.581
  O     -392.631    -593.491     171.744
  O     -395.257    -593.798     171.567
  O     -394.255    -591.728     172.589
  H     -394.799    -592.128     173.297
  H     -390.811    -593.353     172.658
  H     -392.152    -592.678     173.554
  H     -391.517    -591.833     172.162

 6  7  8  9  10  11  12  13  14  15  16  26  31  32  33  34  35 0
 6-311+G(2d,p)
 ****
 36  37 0
 6-311+G(2d,p)
 ****
 1  2  3  4  5  17  18  19  20  21  22  23  24  25 0
 3-21G
 ****
 27  28  29  30  38  39  40  41  42  43  44  45 0
 3-21G
 ****


