%nproc=1
%NoSave
%Mem=1900MB
#P OB98/GEN NMR

erre ene a

0 1
  C     -428.728     100.121    -438.100
  O     -428.826     101.298    -437.318
  P     -428.102     101.381    -435.894
  C     -426.686     103.521    -436.057
  O     -426.679     102.096    -436.088
  C     -426.257     104.087    -437.403
  O     -427.251     103.810    -438.418
  C     -426.089     105.603    -437.418
  O     -424.928     106.016    -436.734
  C     -426.095     105.881    -438.918
  O     -424.804     105.620    -439.486
  C     -427.124     104.845    -439.425
  N     -428.412     105.450    -439.731
  C     -428.416     106.415    -440.748
  O     -427.360     106.768    -441.274
  N     -429.614     106.953    -441.137
  C     -430.696     106.658    -440.487
  N     -431.862     107.176    -440.955
  C     -430.712     105.767    -439.303
  C     -429.545     105.187    -439.002
  O     -428.060     100.099    -435.126
  O     -428.944     102.491    -435.099
  H     -429.188     102.130    -434.221
  H     -424.245     106.394    -439.280
  H     -431.627     105.608    -438.753
  H     -429.467     104.504    -438.165
  H     -426.749     104.346    -440.321
  H     -426.345     106.922    -439.148
  H     -426.973     106.066    -436.962
  H     -425.318     103.598    -437.703
  H     -431.821     107.769    -441.774
  H     -425.993     103.855    -435.278
  H     -432.767     106.767    -440.737
  H     -427.693     103.873    -435.793
  P     -425.109     107.164    -435.626
  C     -424.409     105.708    -433.604
  O     -425.435     106.443    -434.238
  O     -426.493     107.859    -436.035
  O     -423.992     108.162    -435.579
  H     -426.441     108.818    -435.864
  H     -424.661     105.581    -432.551
  H     -423.441     106.215    -433.679
  H     -424.336     104.714    -434.066
  H     -429.272     100.252    -439.012
  H     -429.138      99.296    -437.556
  H     -427.700      99.926    -438.323

 3  4  5  6  7  8  9  10  11  12  13  24  27  28  29  30  32 0
 6-311+G(2d,p)
 ****
 34  35 0
 6-311+G(2d,p)
 ****
 1  2  14  15  16  17  18  19  20  21  22  23  25  26 0
 3-21G
 ****
 31  33  36  37  38  39  40  41  42  43  44  45  46 0
 3-21G
 ****


