%nproc=1
%NoSave
%Mem=1900MB
#P OB98/GEN NMR

erre ene a

0 1
  C      481.571     218.573     -40.424
  O      480.965     217.478     -41.117
  P      481.271     215.998     -40.571
  C      478.797     215.298     -40.137
  O      480.002     215.072     -40.872
  C      477.618     214.612     -40.837
  O      477.166     215.373     -41.968
  C      477.972     213.239     -41.393
  O      478.001     212.278     -40.358
  C      476.859     213.023     -42.409
  O      475.717     212.373     -41.823
  C      476.501     214.458     -42.857
  N      476.855     214.721     -44.244
  C      475.927     214.297     -45.203
  O      474.898     213.713     -44.857
  N      476.210     214.515     -46.529
  C      477.334     215.084     -46.868
  N      477.556     215.272     -48.196
  C      478.346     215.525     -45.884
  C      478.045     215.309     -44.605
  O      481.233     216.179     -38.985
  O      482.583     215.443     -41.037
  H      475.056     212.305     -42.542
  H      481.862     215.572     -38.559
  H      479.262     215.988     -46.214
  H      478.730     215.604     -43.817
  H      475.424     214.638     -42.741
  H      477.196     212.387     -43.237
  H      478.940     213.285     -41.904
  H      476.790     214.526     -40.112
  H      476.833     214.956     -48.842
  H      478.613     216.371     -40.055
  H      478.389     215.694     -48.564
  H      478.928     214.922     -39.118
  P      479.057     211.086     -40.482
  C      479.903     210.911     -38.064
  O      479.041     210.362     -39.044
  O      480.452     211.861     -40.443
  O      478.943     210.185     -41.673
  H      481.188     211.251     -40.605
  H      479.646     210.475     -37.089
  H      479.778     211.996     -37.998
  H      480.943     210.664     -38.296
  H      481.285     219.493     -40.890
  H      482.636     218.472     -40.459
  H      481.246     218.574     -39.405

 3  4  5  6  7  8  9  10  11  12  13  21  23  27  28  29  30  32 0
 6-311+G(2d,p)
 ****
 34  35 0
 6-311+G(2d,p)
 ****
 1  2  14  15  16  17  18  19  20  22  24  25  26 0
 3-21G
 ****
 31  33  36  37  38  39  40  41  42  43  44  45  46 0
 3-21G
 ****


