%nproc=1
%NoSave
%Mem=1900MB
#P OB98/GEN NMR

erre ene a

0 1
  C       39.320    -428.873     167.275
  O       38.238    -428.366     166.492
  P       36.961    -427.741     167.226
  C       36.145    -426.146     165.360
  O       35.875    -427.312     166.127
  C       35.231    -426.099     164.132
  O       35.750    -426.922     163.057
  C       33.840    -426.654     164.408
  O       33.004    -425.887     165.253
  C       33.329    -426.954     163.009
  O       32.797    -425.787     162.381
  C       34.623    -427.412     162.295
  N       34.691    -428.861     162.120
  C       35.131    -429.307     160.878
  O       35.415    -428.552     159.950
  N       35.205    -430.666     160.722
  C       34.857    -431.599     161.653
  O       34.920    -432.805     161.455
  C       34.372    -431.067     162.939
  C       34.312    -429.745     163.110
  O       37.249    -426.715     168.268
  O       36.273    -429.032     167.895
  H       33.543    -425.179     162.214
  H       35.965    -428.776     168.787
  H       35.531    -431.006     159.833
  H       34.078    -431.781     163.700
  H       33.959    -429.332     164.048
  H       34.696    -426.951     161.300
  H       32.533    -427.702     163.021
  H       33.958    -427.621     164.913
  H       35.189    -425.071     163.766
  H       37.193    -426.136     165.056
  H       36.001    -425.262     165.994
  P       32.337    -426.470     166.587
  C       32.863    -424.548     168.247
  O       31.879    -425.232     167.502
  O       33.027    -427.604     167.263
  O       30.923    -426.996     166.026
  H       30.659    -427.781     166.544
  H       32.376    -423.753     168.820
  H       33.601    -424.096     167.580
  H       33.354    -425.226     168.946
  H       40.083    -429.250     166.627
  H       38.965    -429.662     167.905
  H       39.722    -428.087     167.880

 3  4  5  6  7  8  9  10  11  12  13  23  28  29  30  31  32 0
 6-311+G(2d,p)
 ****
 33  34 0
 6-311+G(2d,p)
 ****
 1  2  14  15  16  17  18  19  20  21  22  24  25  26  27 0
 3-21G
 ****
 35  36  37  38  39  40  41  42  43  44  45 0
 3-21G
 ****


