%nproc=1
%NoSave
%Mem=1900MB
#P OB98/GEN NMR

erre ene a

0 1
  C      296.610     389.071     175.841
  O      297.831     389.121     175.099
  P      298.015     388.008     173.957
  C      300.576     387.674     174.231
  O      299.515     388.118     173.396
  C      301.815     388.554     174.050
  O      301.797     389.704     174.914
  C      303.119     387.829     174.347
  O      303.493     387.027     173.241
  C      304.074     388.992     174.591
  O      304.597     389.512     173.353
  C      303.168     390.032     175.270
  N      304.594     392.944     179.166
  C      304.745     393.147     177.806
  N      305.338     394.304     177.433
  N      304.346     392.298     176.897
  C      303.767     391.187     177.417
  C      303.535     390.888     178.742
  C      303.985     391.837     179.740
  O      303.852     391.716     180.950
  N      302.867     389.696     178.878
  C      302.811     389.223     177.644
  N      303.286     390.120     176.714
  O      297.112     388.556     172.757
  O      297.592     386.643     174.384
  H      304.975     390.394     173.512
  H      296.325     387.989     172.648
  H      304.923     393.632     179.822
  H      302.415     388.255     177.373
  H      303.363     391.043     174.889
  H      304.936     388.690     175.190
  H      305.665     395.006     178.078
  H      303.018     387.222     175.260
  H      305.452     394.474     176.440
  H      301.812     388.912     173.010
  H      300.827     386.636     173.998
  H      300.234     387.688     175.272
  P      303.378     385.434     173.391
  C      305.700     384.581     172.606
  O      304.335     384.778     172.291
  O      301.900     385.127     172.853
  O      303.556     384.933     174.784
  H      301.458     384.494     173.447
  H      306.067     383.712     172.052
  H      305.849     384.409     173.675
  H      306.268     385.464     172.301
  H      296.602     389.856     176.568
  H      296.532     388.126     176.336
  H      295.782     389.194     175.174

 3  4  5  6  7  8  9  10  11  12  23  26  30  31 0
 6-311+G(2d,p)
 ****
 33  35  36  37  38 0
 6-311+G(2d,p)
 ****
 1  2  13  14  15  16  17  18  19  20  21  22  24  25 0
 3-21G
 ****
 27  28  29  32  34  39  40  41  42  43  44  45  46  47  48  49 0
 3-21G
 ****


