%nproc=1
%NoSave
%Mem=1900MB
#P OB98/GEN NMR

erre ene a

0 1
  C        2.035     355.643     605.905
  O        2.911     355.067     606.862
  P        4.494     355.196     606.598
  C        6.311     353.765     605.343
  O        4.944     353.962     605.681
  C        6.457     353.321     603.879
  O        6.073     351.931     603.779
  C        5.584     354.060     602.884
  O        6.120     353.864     601.569
  C        4.266     353.313     603.001
  O        3.425     353.548     601.878
  C        4.740     351.851     603.193
  N        3.847     351.045     604.062
  C        2.631     350.619     603.537
  O        2.234     350.857     602.397
  N        1.819     349.907     604.389
  C        2.129     349.568     605.692
  O        1.343     348.999     606.434
  C        3.482     349.919     606.134
  C        4.255     350.644     605.325
  O        5.151     354.889     608.021
  O        4.897     356.538     606.066
  H        3.874     353.128     601.096
  H        5.465     355.703     608.435
  H        0.917     349.643     604.052
  H        3.800     349.612     607.123
  H        5.256     350.930     605.648
  H        4.814     351.324     602.226
  H        3.734     353.656     603.890
  H        5.460     355.137     603.084
  H        7.520     353.388     603.596
  H        6.749     353.008     606.018
  H        6.870     354.700     605.505
  P        6.711     355.143     600.802
  C        5.961     356.662     598.856
  O        5.656     355.511     599.638
  O        8.143     355.046     600.376
  O        6.500     356.338     601.860
  H        7.077     357.086     601.631
  H        5.541     356.515     597.860
  H        7.053     356.814     598.759
  H        5.508     357.544     599.319
  H        1.021     355.482     606.207
  H        2.199     355.187     604.951
  H        2.224     356.694     605.835

 3  4  5  6  7  8  9  10  11  12  13  23  28  29  30  31  32 0
 6-311+G(2d,p)
 ****
 33  34 0
 6-311+G(2d,p)
 ****
 1  2  14  15  16  17  18  19  20  21  22  24  25  26  27 0
 3-21G
 ****
 35  36  37  38  39  40  41  42  43  44  45 0
 3-21G
 ****


