%nproc=1
%NoSave
%Mem=1900MB
#P OB98/GEN NMR

erre ene a

0 1
  C     -457.152    -919.481     113.418
  O     -457.126    -920.900     113.560
  P     -456.099    -921.736     112.651
  C     -455.871    -923.618     114.508
  O     -456.050    -923.254     113.158
  C     -456.437    -925.035     114.735
  O     -457.882    -924.988     114.766
  C     -456.052    -926.019     113.642
  O     -454.773    -926.633     113.908
  C     -457.204    -927.006     113.665
  O     -457.068    -927.915     114.791
  C     -458.390    -926.044     113.889
  N     -459.014    -925.418     112.702
  C     -460.297    -925.774     112.308
  O     -460.992    -926.610     112.895
  N     -460.803    -925.129     111.201
  C     -460.234    -924.066     110.568
  O     -460.755    -923.496     109.625
  C     -458.939    -923.623     111.114
  C     -458.398    -924.309     112.128
  O     -454.671    -921.157     113.057
  O     -456.364    -921.634     111.186
  H     -456.204    -928.329     114.699
  H     -454.265    -920.712     112.291
  H     -461.698    -925.438     110.875
  H     -458.483    -922.747     110.663
  H     -457.435    -923.978     112.529
  H     -459.201    -926.561     114.431
  H     -457.231    -927.619     112.772
  H     -456.037    -925.537     112.662
  H     -456.089    -925.411     115.708
  H     -456.365    -922.914     115.182
  H     -454.799    -923.602     114.750
  P     -453.660    -926.678     112.759
  C     -451.899    -925.368     114.096
  O     -452.247    -926.615     113.532
  O     -453.840    -925.715     111.638
  O     -453.712    -928.196     112.240
  H     -454.267    -928.292     111.452
  H     -451.023    -925.486     114.715
  H     -452.724    -924.968     114.696
  H     -451.680    -924.648     113.287
  H     -457.881    -919.069     114.084
  H     -457.407    -919.228     112.410
  H     -456.188    -919.081     113.653

 3  4  5  6  7  8  9  10  11  12  13  23  28  29  30  31  32 0
 6-311+G(2d,p)
 ****
 33  34 0
 6-311+G(2d,p)
 ****
 1  2  14  15  16  17  18  19  20  21  22  24  25  26  27 0
 3-21G
 ****
 35  36  37  38  39  40  41  42  43  44  45 0
 3-21G
 ****


