%nproc=1
%NoSave
%Mem=1900MB
#P OB98/GEN NMR

erre ene a

0 1
  C       39.388      25.955      -7.718
  O       39.489      26.368      -6.374
  H       39.542      24.874      -7.763
  H       40.163      26.446      -8.313
  H       38.404      26.186      -8.135
  P       38.882      27.788      -5.957
  C       40.963      29.280      -6.270
  O       40.075      28.669      -5.343
  C       41.979      30.187      -5.576
  O       42.783      30.880      -6.556
  C       41.308      31.274      -4.735
  O       40.927      30.882      -3.430
  C       42.393      32.346      -4.690
  O       43.323      32.090      -3.625
  C       43.079      32.193      -6.049
  N       44.148      36.609      -8.383
  C       44.848      35.963      -7.383
  N       45.937      36.604      -6.906
  N       44.495      34.805      -6.889
  C       43.333      34.330      -7.395
  C       42.546      34.887      -8.378
  C       42.975      36.144      -8.957
  O       42.387      36.761      -9.840
  N       41.440      34.113      -8.636
  C       41.521      33.132      -7.760
  N       42.666      33.206      -7.003
  O       37.998      27.454      -4.661
  O       38.060      28.467      -7.009
  H       43.640      31.173      -3.708
  H       37.283      28.109      -4.570
  H       44.482      37.485      -8.745
  H       40.796      32.333      -7.651
  H       44.170      32.261      -5.958
  H       41.972      33.340      -4.509
  H       46.180      37.546      -7.172
  H       40.442      31.685      -5.264
  H       46.316      36.299      -6.007
  H       42.659      29.573      -4.974
  H       40.347      29.866      -6.956
  H       41.474      28.518      -6.864
  P       39.378      30.801      -3.037
  C       39.275      32.871      -1.464
  O       39.226      31.467      -1.588
  O       39.162      29.239      -2.765
  O       38.439      31.318      -4.073
  H       38.799      28.805      -3.559
  H       39.158      33.143      -0.436
  H       38.486      33.308      -2.040
  H       40.218      33.228      -1.822

 6  7  8  9  10  11  12  13  14  15  26  29  33  34 0
 6-311+G(2d,p)
 ****
 36  38  39  40  41 0
 6-311+G(2d,p)
 ****
 1  2  3  4  5  16  17  18  19  20  21  22  23  24  25 0
 3-21G
 ****
 27  28  30  31  32  35  37  42  43  44  45  46  47 0
 3-21G
 ****
 48  49 0
 3-21G
 ****


