%nproc=1
%NoSave
%Mem=1900MB
#P OB98/GEN NMR

erre ene a

0 1
  C      429.591    -383.136    -425.294
  O      430.060    -383.935    -424.221
  H      429.321    -383.790    -426.128
  H      430.369    -382.448    -425.636
  H      428.706    -382.570    -424.989
  P      430.667    -383.195    -422.934
  C      432.665    -381.595    -422.544
  O      432.016    -382.497    -423.439
  C      434.178    -381.697    -422.701
  O      434.556    -381.468    -424.074
  C      434.934    -380.662    -421.885
  O      434.964    -381.015    -420.518
  C      436.277    -380.667    -422.589
  O      437.083    -381.776    -422.172
  C      435.848    -380.825    -424.071
  N      435.799    -379.550    -424.780
  C      436.794    -379.350    -425.747
  O      437.639    -380.219    -425.963
  N      436.813    -378.157    -426.424
  C      435.909    -377.256    -426.181
  N      435.987    -376.092    -426.883
  C      434.842    -377.433    -425.178
  C      434.850    -378.591    -424.524
  O      430.821    -384.019    -421.692
  O      429.679    -381.954    -422.714
  H      436.494    -382.556    -422.197
  H      428.941    -382.206    -422.127
  H      434.111    -376.658    -425.010
  H      434.092    -378.806    -423.771
  H      436.539    -381.490    -424.603
  H      436.843    -379.757    -422.390
  H      434.484    -379.672    -422.019
  H      434.486    -382.715    -422.430
  H      436.746    -376.012    -427.554
  H      432.367    -381.881    -421.529
  H      435.296    -375.364    -426.846
  H      432.333    -380.569    -422.728
  P      435.400    -379.946    -419.405
  C      437.415    -378.371    -419.083
  O      436.805    -379.355    -419.916
  O      435.389    -380.443    -417.999
  O      434.386    -378.730    -419.653
  H      433.479    -378.940    -419.323
  H      438.338    -378.054    -419.522
  H      437.605    -378.790    -418.117
  H      436.760    -377.531    -418.985

 6  7  8  9  10  11  12  13  14  15  16  26  30  31  32  33  35 0
 6-311+G(2d,p)
 ****
 37  38 0
 6-311+G(2d,p)
 ****
 1  2  3  4  5  17  18  19  20  21  22  23  24  25 0
 3-21G
 ****
 27  28  29  34  36  39  40  41  42  43  44  45  46 0
 3-21G
 ****


