%nproc=1
%NoSave
%Mem=1900MB
#P OB98/GEN NMR

erre ene a

0 1
  C     -237.714     211.420     -29.027
  O     -236.545     210.975     -28.364
  H     -238.348     210.554     -29.237
  H     -237.457     211.901     -29.973
  H     -238.271     212.118     -28.394
  P     -235.446     212.067     -27.953
  C     -233.858     210.138     -27.288
  O     -234.029     211.323     -28.056
  C     -232.835     209.227     -27.952
  O     -233.320     208.772     -29.231
  C     -231.482     209.897     -28.214
  O     -230.700     209.901     -27.034
  C     -230.933     208.982     -29.297
  O     -230.452     207.761     -28.702
  C     -232.190     208.708     -30.143
  N     -231.135     209.847     -34.967
  C     -230.665     208.811     -34.174
  N     -229.752     207.993     -34.742
  N     -231.040     208.621     -32.939
  C     -231.904     209.556     -32.488
  C     -232.426     210.632     -33.173
  C     -232.044     210.807     -34.557
  O     -232.450     211.697     -35.300
  N     -233.224     211.406     -32.362
  C     -233.211     210.775     -31.202
  N     -232.414     209.653     -31.224
  O     -235.666     212.767     -26.644
  O     -235.425     213.083     -29.186
  H     -229.705     208.009     -28.124
  H     -236.034     213.829     -29.039
  H     -230.789     209.951     -35.909
  H     -233.760     211.085     -30.323
  H     -232.180     207.707     -30.585
  H     -230.101     209.424     -29.847
  H     -229.230     208.264     -35.563
  H     -231.607     210.899     -28.636
  H     -229.356     207.264     -34.162
  H     -232.713     208.338     -27.319
  H     -234.835     209.644     -27.227
  H     -233.524     210.388     -26.274
  P     -229.420     210.862     -26.897
  C     -228.539     209.302     -25.037
  O     -228.266     209.935     -26.278
  O     -229.665     212.138     -26.157
  O     -228.917     211.080     -28.401
  H     -229.348     211.845     -28.853
  H     -227.692     208.719     -24.740
  H     -229.392     208.665     -25.142
  H     -228.738     210.045     -24.294

 6  7  8  9  10  11  12  13  14  15  26  29  33  34 0
 6-311+G(2d,p)
 ****
 36  38  39  40  41 0
 6-311+G(2d,p)
 ****
 1  2  3  4  5  16  17  18  19  20  21  22  23  24  25 0
 3-21G
 ****
 27  28  30  31  32  35  37  42  43  44  45  46  47 0
 3-21G
 ****
 48  49 0
 3-21G
 ****


