%nproc=1
%NoSave
%Mem=1900MB
#P OB98/GEN NMR

erre ene a

0 1
  C     -214.034    -287.492     779.814
  O     -213.350    -287.775     778.613
  H     -215.078    -287.266     779.573
  H     -213.600    -286.627     780.315
  H     -214.016    -288.355     780.483
  P     -211.778    -288.089     778.680
  C     -211.030    -285.616     778.741
  O     -211.093    -286.858     779.447
  C     -210.105    -284.631     779.486
  O     -209.782    -283.552     778.565
  C     -210.776    -284.031     780.729
  O     -209.985    -284.162     781.909
  C     -211.144    -282.617     780.274
  O     -211.228    -281.675     781.323
  C     -210.073    -282.304     779.219
  N     -210.493    -281.303     778.237
  C     -210.341    -279.962     778.589
  O     -209.872    -279.553     779.641
  N     -210.747    -279.055     777.643
  C     -211.302    -279.346     776.424
  O     -211.644    -278.492     775.620
  C     -211.462    -280.781     776.121
  C     -211.062    -281.672     777.027
  O     -211.141    -288.452     777.381
  O     -211.660    -289.279     779.744
  H     -210.302    -281.492     781.622
  H     -211.494    -290.119     779.274
  H     -210.630    -278.083     777.869
  H     -211.908    -281.047     775.171
  H     -211.154    -282.743     776.844
  H     -209.157    -281.943     779.688
  H     -212.126    -282.652     779.785
  H     -211.697    -284.565     780.980
  H     -209.169    -285.143     779.734
  H     -212.049    -285.213     778.683
  H     -210.652    -285.785     777.727
  P     -210.021    -285.420     782.894
  C     -212.441    -284.987     783.849
  O     -211.550    -285.836     783.126
  O     -209.159    -285.318     784.106
  O     -209.448    -286.634     782.007
  H     -208.981    -287.236     782.615
  H     -213.409    -285.441     783.893
  H     -212.513    -284.041     783.354
  H     -212.069    -284.843     784.842

 6  7  8  9  10  11  12  13  14  15  16  26  31  32  33  34  35 0
 6-311+G(2d,p)
 ****
 36  37 0
 6-311+G(2d,p)
 ****
 1  2  3  4  5  17  18  19  20  21  22  23  24  25 0
 3-21G
 ****
 27  28  29  30  38  39  40  41  42  43  44  45 0
 3-21G
 ****


