%nproc=1
%NoSave
%Mem=1900MB
#P OB98/GEN NMR

erre ene a

0 1
  C     -249.477     -73.806      32.609
  O     -248.793     -73.893      33.858
  P     -249.311     -72.990      35.077
  C     -247.506     -74.344      36.330
  O     -248.291     -73.157      36.306
  C     -246.350     -74.206      37.335
  O     -245.255     -73.494      36.698
  C     -246.684     -73.407      38.600
  O     -247.220     -74.107      39.719
  C     -245.299     -72.915      39.016
  O     -244.622     -73.943      39.764
  C     -244.581     -72.691      37.689
  N     -242.754     -68.031      38.751
  C     -242.574     -69.230      39.347
  N     -243.098     -70.423      39.002
  C     -243.870     -70.308      37.911
  C     -244.144     -69.154      37.195
  C     -243.549     -67.969      37.657
  N     -243.741     -66.746      37.057
  N     -244.988     -69.425      36.138
  C     -245.233     -70.717      36.227
  N     -244.571     -71.298      37.273
  O     -250.756     -73.123      35.421
  O     -248.985     -71.504      34.567
  H     -245.133     -74.069      40.585
  H     -249.700     -70.906      34.856
  H     -241.925     -69.230      40.219
  H     -245.880     -71.269      35.561
  H     -243.537     -73.021      37.719
  H     -245.347     -72.036      39.666
  H     -247.325     -72.551      38.361
  H     -245.992     -75.206      37.609
  H     -247.105     -74.537      35.332
  H     -243.313     -65.937      37.478
  H     -244.376     -66.671      36.276
  H     -248.172     -75.173      36.568
  P     -248.597     -73.656      40.404
  C     -248.528     -76.111      41.305
  O     -248.909     -74.769      41.513
  O     -249.717     -73.391      39.458
  O     -248.152     -72.392      41.277
  H     -247.577     -72.606      42.030
  H     -248.631     -76.656      42.248
  H     -247.488     -76.173      40.975
  H     -249.184     -76.569      40.559
  H     -249.015     -74.464      31.903
  H     -249.428     -72.801      32.245
  H     -250.501     -74.088      32.743

 3  4  5  6  7  8  9  10  11  12  22  25  29  30  31  32 0
 6-311+G(2d,p)
 ****
 33  36  37 0
 6-311+G(2d,p)
 ****
 1  2  13  14  15  16  17  18  19  20  21  23  24  26 0
 3-21G
 ****
 27  28  34  35  38  39  40  41  42  43  44  45  46  47  48 0
 3-21G
 ****


