%nproc=1
%NoSave
%Mem=1900MB
#P OB98/GEN NMR

erre ene a

0 1
  C     -115.592     162.888    -445.421
  O     -116.127     163.189    -444.145
  H     -115.636     163.789    -446.038
  H     -116.171     162.097    -445.912
  H     -114.548     162.579    -445.327
  P     -116.412     161.970    -443.138
  C     -116.715     163.302    -440.943
  O     -117.362     162.577    -441.990
  C     -117.656     164.362    -440.358
  O     -117.783     165.475    -441.271
  C     -119.076     163.865    -440.130
  O     -119.194     162.915    -439.086
  C     -119.868     165.161    -440.061
  O     -119.896     165.744    -438.762
  C     -119.071     166.073    -441.034
  N     -119.796     166.324    -442.273
  C     -120.854     167.227    -442.187
  O     -121.195     167.785    -441.141
  N     -121.544     167.451    -443.345
  C     -121.314     166.827    -444.544
  O     -122.001     167.037    -445.547
  C     -120.204     165.866    -444.569
  C     -119.504     165.660    -443.443
  O     -115.195     161.263    -442.609
  O     -117.397     161.018    -443.964
  H     -120.589     166.434    -438.770
  H     -117.436     160.113    -443.566
  H     -122.305     168.109    -443.315
  H     -119.995     165.345    -445.495
  H     -118.679     164.950    -443.430
  H     -118.880     167.049    -440.559
  H     -120.910     165.011    -440.363
  H     -119.399     163.351    -441.043
  H     -117.211     164.736    -439.426
  H     -115.841     163.800    -441.375
  H     -116.386     162.612    -440.162
  P     -119.982     161.535    -439.243
  C     -118.258     160.164    -437.869
  O     -119.606     160.594    -437.994
  O     -120.017     160.931    -440.615
  O     -121.492     161.986    -438.886
  H     -122.102     161.453    -439.438
  H     -118.159     159.550    -436.998
  H     -117.618     161.017    -437.778
  H     -117.981     159.601    -438.736

 6  7  8  9  10  11  12  13  14  15  16  26  31  32  33  34  35 0
 6-311+G(2d,p)
 ****
 36  37 0
 6-311+G(2d,p)
 ****
 1  2  3  4  5  17  18  19  20  21  22  23  24  25 0
 3-21G
 ****
 27  28  29  30  38  39  40  41  42  43  44  45 0
 3-21G
 ****


