%nproc=1
%NoSave
%Mem=1900MB
#P OB98/GEN NMR

erre ene a

0 1
  C     -443.043      55.310     -99.002
  O     -443.609      56.175     -99.972
  P     -443.731      57.730     -99.591
  C     -441.230      57.813    -100.299
  O     -442.229      58.248     -99.381
  C     -440.412      59.001    -100.795
  O     -441.169      59.753    -101.760
  C     -440.036      59.991     -99.707
  O     -438.958      59.501     -98.936
  C     -439.696      61.228    -100.530
  O     -438.325      61.203    -100.958
  C     -440.655      61.104    -101.737
  N     -441.729      62.081    -101.701
  C     -441.686      63.071    -102.691
  O     -440.764      63.088    -103.508
  N     -442.663      64.036    -102.699
  C     -443.595      64.014    -101.799
  N     -444.540      64.992    -101.860
  C     -443.665      63.002    -100.729
  C     -442.706      62.077    -100.735
  O     -444.327      57.696     -98.109
  O     -444.573      58.536    -100.524
  H     -438.207      62.000    -101.515
  H     -444.823      58.513     -97.914
  H     -444.462      63.029    -100.001
  H     -442.681      61.295     -99.984
  H     -440.103      61.240    -102.676
  H     -439.831      62.149     -99.956
  H     -440.900      60.203     -99.064
  H     -439.511      58.614    -101.292
  H     -444.461      65.678    -102.602
  H     -441.711      57.332    -101.155
  H     -445.317      65.051    -101.219
  H     -440.587      57.079     -99.801
  P     -438.906      59.902     -97.386
  C     -440.121      57.733     -96.760
  O     -440.154      59.146     -96.724
  O     -439.413      61.423     -97.414
  O     -437.596      59.760     -96.688
  H     -439.331      61.817     -96.527
  H     -440.938      57.347     -96.146
  H     -439.173      57.361     -96.363
  H     -440.258      57.383     -97.788
  H     -443.022      54.311     -99.384
  H     -443.634      55.339     -98.110
  H     -442.046      55.627     -98.780

 3  4  5  6  7  8  9  10  11  12  13  21  23  27  28  29  30  32 0
 6-311+G(2d,p)
 ****
 34  35 0
 6-311+G(2d,p)
 ****
 1  2  14  15  16  17  18  19  20  22  24  25  26 0
 3-21G
 ****
 31  33  36  37  38  39  40  41  42  43  44  45  46 0
 3-21G
 ****


