%nproc=1
%NoSave
%Mem=1900MB
#P OB98/GEN NMR

erre ene a

0 1
  C      478.037     444.196     123.244
  O      476.781     443.858     123.801
  H      478.664     443.304     123.233
  H      478.518     444.966     123.857
  H      477.916     444.557     122.220
  P      475.636     444.985     123.745
  C      474.341     443.716     121.836
  O      475.008     444.888     122.267
  C      474.216     443.699     120.309
  O      475.538     443.780     119.734
  C      473.544     442.435     119.768
  O      472.759     442.796     118.626
  C      474.719     441.580     119.322
  O      474.343     440.626     118.334
  C      475.709     442.659     118.837
  N      477.090     442.185     118.828
  C      477.514     441.526     117.674
  O      476.744     441.353     116.730
  N      478.800     441.032     117.623
  C      479.566     441.134     118.653
  N      480.818     440.605     118.553
  C      479.146     441.780     119.916
  C      477.913     442.293     119.926
  O      476.506     446.333     123.706
  O      474.651     444.919     124.860
  H      475.155     440.151     118.042
  H      477.260     446.286     123.094
  H      479.823     441.837     120.760
  H      477.524     442.789     120.809
  H      475.445     443.000     117.830
  H      475.142     441.035     120.176
  H      472.917     441.933     120.505
  H      473.669     444.597     120.002
  H      481.056     440.140     117.680
  H      473.342     443.655     122.293
  H      481.482     440.575     119.312
  H      474.919     442.858     122.182
  P      471.184     443.001     118.793
  C      471.095     445.483     118.083
  O      470.869     444.536     119.118
  O      470.490     442.006     119.661
  O      470.648     442.868     117.270
  H      469.823     442.349     117.291
  H      470.845     446.462     118.435
  H      470.485     445.241     117.238
  H      472.126     445.459     117.797

 6  7  8  9  10  11  12  13  14  15  16  26  30  31  32  33  35 0
 6-311+G(2d,p)
 ****
 37  38 0
 6-311+G(2d,p)
 ****
 1  2  3  4  5  17  18  19  20  21  22  23  24  25 0
 3-21G
 ****
 27  28  29  34  36  39  40  41  42  43  44  45  46 0
 3-21G
 ****


