%nproc=1
%NoSave
%Mem=1900MB
#P OB98/GEN NMR

erre ene a

0 1
  C      -90.581      33.029      59.419
  O      -90.870      32.663      58.087
  H      -89.672      32.513      59.735
  H      -91.405      32.724      60.072
  H      -90.422      34.107      59.509
  P      -91.928      33.532      57.260
  C      -90.140      35.198      56.428
  O      -91.126      34.244      56.065
  C      -89.173      35.464      55.268
  O      -88.469      34.243      54.935
  C      -89.947      35.887      54.016
  O      -89.176      36.734      53.169
  C      -90.192      34.563      53.308
  O      -90.450      34.715      51.915
  C      -88.896      33.819      53.627
  N      -86.509      29.319      53.539
  C      -85.981      30.590      53.434
  N      -84.642      30.672      53.260
  N      -86.702      31.680      53.478
  C      -88.032      31.443      53.580
  C      -88.676      30.229      53.667
  C      -87.863      29.032      53.658
  O      -88.278      27.878      53.729
  N      -90.037      30.388      53.740
  C      -90.218      31.692      53.689
  N      -89.029      32.377      53.606
  O      -92.258      34.760      58.236
  O      -93.175      32.813      56.844
  H      -90.664      33.833      51.558
  H      -93.136      35.128      58.034
  H      -85.907      28.513      53.515
  H      -91.181      32.189      53.714
  H      -88.109      34.087      52.911
  H      -91.074      34.095      53.752
  H      -84.076      29.866      53.045
  H      -90.883      36.389      54.261
  H      -84.283      31.557      52.891
  H      -88.417      36.197      55.565
  H      -89.593      34.788      57.284
  H      -90.613      36.127      56.756
  P      -89.970      37.690      52.156
  C      -90.479      39.665      53.807
  O      -89.786      39.200      52.663
  O      -91.505      37.359      52.453
  O      -89.614      37.475      50.723
  H      -91.878      36.817      51.734
  H      -90.228      40.690      53.984
  H      -90.200      39.077      54.656
  H      -91.533      39.579      53.645

 6  7  8  9  10  11  12  13  14  15  26  29  33  34 0
 6-311+G(2d,p)
 ****
 36  38  39  40  41 0
 6-311+G(2d,p)
 ****
 1  2  3  4  5  16  17  18  19  20  21  22  23  24  25 0
 3-21G
 ****
 27  28  30  31  32  35  37  42  43  44  45  46  47 0
 3-21G
 ****
 48  49 0
 3-21G
 ****


