%nproc=1
%NoSave
%Mem=1900MB
#P OB98/GEN NMR

erre ene a

0 1
  C     -170.435    -892.880     560.316
  O     -170.905    -893.850     559.402
  P     -171.063    -895.390     559.745
  C     -169.630    -897.570     559.504
  O     -169.712    -896.160     559.334
  C     -168.473    -898.160     558.697
  O     -168.706    -897.880     557.276
  C     -167.134    -897.480     559.040
  O     -166.030    -898.380     559.129
  C     -167.023    -896.350     558.022
  O     -165.695    -895.870     557.827
  C     -167.681    -897.000     556.788
  N     -166.836    -893.660     553.030
  C     -165.971    -894.600     553.570
  N     -164.673    -894.510     553.209
  N     -166.354    -895.520     554.435
  C     -167.649    -895.400     554.819
  C     -168.591    -894.520     554.342
  C     -168.179    -893.540     553.369
  O     -168.875    -892.620     552.932
  N     -169.795    -894.680     554.988
  C     -169.572    -895.620     555.884
  N     -168.261    -896.070     555.840
  O     -172.372    -896.030     559.382
  O     -170.967    -895.370     561.367
  H     -165.737    -895.190     557.144
  H     -171.558    -896.090     561.699
  H     -166.465    -892.930     552.429
  H     -170.295    -895.990     556.607
  H     -166.966    -897.590     556.223
  H     -167.626    -895.520     558.373
  H     -164.322    -893.720     552.665
  H     -167.181    -897.030     560.045
  H     -163.986    -895.000     553.769
  H     -168.435    -899.240     558.828
  H     -170.588    -897.980     559.155
  H     -169.525    -897.820     560.564
  P     -164.736    -898.300     560.091
  C     -162.469    -897.120     560.126
  O     -163.672    -897.300     559.420
  O     -164.027    -899.730     559.953
  O     -165.049    -898.000     561.532
  H     -163.687    -900.000     560.828
  H     -161.950    -896.220     559.745
  H     -161.815    -897.990     559.990
  H     -162.667    -896.940     561.197
  H     -170.422    -891.921     559.842
  H     -169.445    -893.136     560.630
  H     -171.083    -892.849     561.167

 3  4  5  6  7  8  9  10  11  12  23  26  30  31 0
 6-311+G(2d,p)
 ****
 33  35  36  37  38 0
 6-311+G(2d,p)
 ****
 1  2  13  14  15  16  17  18  19  20  21  22  24  25 0
 3-21G
 ****
 27  28  29  32  34  39  40  41  42  43  44  45  46  47  48  49 0
 3-21G
 ****


