%nproc=1
%NoSave
%Mem=1900MB
#P OB98/GEN NMR

erre ene a

0 1
  C     -479.675    -881.227     267.842
  O     -478.821    -880.956     266.746
  H     -480.709    -881.043     267.531
  H     -479.438    -880.559     268.686
  H     -479.574    -882.268     268.151
  P     -477.244    -881.128     267.012
  C     -476.889    -879.155     265.390
  O     -476.550    -880.497     265.703
  C     -475.842    -878.535     264.464
  O     -474.668    -878.198     265.241
  C     -475.392    -879.478     263.339
  O     -475.181    -878.723     262.142
  C     -474.057    -880.014     263.831
  O     -473.205    -880.432     262.769
  C     -473.526    -878.824     264.640
  N     -468.591    -879.756     265.568
  C     -469.231    -879.226     264.503
  N     -470.536    -878.996     264.343
  C     -471.229    -879.341     265.460
  C     -470.721    -879.902     266.626
  C     -469.336    -880.116     266.639
  N     -468.685    -880.690     267.717
  N     -471.747    -880.160     267.513
  C     -472.841    -879.747     266.912
  N     -472.583    -879.255     265.664
  O     -476.794    -882.501     267.372
  O     -476.966    -880.001     268.119
  H     -472.351    -880.715     263.156
  H     -477.427    -879.166     267.897
  H     -468.581    -878.941     263.663
  H     -473.847    -879.785     267.336
  H     -473.011    -878.088     264.008
  H     -474.233    -880.874     264.493
  H     -476.107    -880.272     263.155
  H     -476.240    -877.598     264.057
  H     -476.954    -878.559     266.312
  H     -467.683    -880.803     267.668
  H     -469.217    -880.961     268.543
  H     -477.871    -879.153     264.908
  P     -476.133    -879.023     260.895
  C     -474.520    -878.749     258.873
  O     -475.600    -878.169     259.627
  O     -477.595    -878.936     261.130
  O     -475.708    -880.523     260.480
  H     -476.508    -881.003     260.191
  H     -474.257    -878.097     258.066
  H     -474.827    -879.696     258.480
  H     -473.672    -878.886     259.512

 6  7  8  9  10  11  12  13  14  15  25  28  32  33  34  35 0
 6-311+G(2d,p)
 ****
 36  39  40 0
 6-311+G(2d,p)
 ****
 1  2  3  4  5  16  17  18  19  20  21  22  23  24 0
 3-21G
 ****
 26  27  29  30  31  37  38  41  42  43  44  45  46  47 0
 3-21G
 ****
 48 0
 3-21G
 ****


