%nproc=1
%NoSave
%Mem=1900MB
#P OB98/GEN NMR

erre ene a

0 1
  C     -158.022    -578.813     325.178
  O     -158.010    -578.819     323.766
  H     -158.218    -577.793     325.524
  H     -157.055    -579.140     325.570
  H     -158.818    -579.468     325.547
  P     -157.711    -580.223     323.054
  C     -157.881    -579.045     320.750
  O     -157.081    -579.825     321.630
  C     -157.005    -578.318     319.732
  O     -156.236    -577.293     320.374
  C     -156.011    -579.221     319.016
  O     -156.627    -579.880     317.925
  C     -154.997    -578.194     318.533
  O     -155.476    -577.562     317.328
  C     -154.966    -577.173     319.680
  N     -150.619    -575.194     321.580
  C     -151.356    -574.865     320.491
  N     -152.470    -575.467     320.015
  C     -152.810    -576.510     320.795
  C     -152.155    -576.966     321.924
  C     -151.012    -576.253     322.319
  N     -150.259    -576.589     323.420
  N     -152.799    -578.063     322.458
  C     -153.863    -578.235     321.694
  N     -153.890    -577.339     320.650
  O     -158.846    -581.192     323.023
  O     -156.421    -580.715     323.873
  H     -156.356    -577.189     317.539
  H     -155.823    -579.967     324.043
  H     -151.011    -574.003     319.921
  H     -154.640    -578.963     321.860
  H     -154.900    -576.148     319.311
  H     -154.028    -578.637     318.295
  H     -155.519    -579.920     319.703
  H     -157.678    -577.825     319.008
  H     -158.464    -578.319     321.326
  H     -149.357    -576.157     323.518
  H     -150.481    -577.453     323.896
  H     -158.580    -579.725     320.250
  P     -156.097    -581.301     317.405
  C     -156.422    -580.358     315.039
  O     -155.542    -581.025     315.924
  O     -157.085    -582.416     317.532
  O     -154.768    -581.554     318.244
  H     -154.515    -582.499     318.201
  H     -155.945    -580.231     314.090
  H     -156.674    -579.399     315.442
  H     -157.312    -580.939     314.916

 6  7  8  9  10  11  12  13  14  15  25  28  32  33  34  35 0
 6-311+G(2d,p)
 ****
 36  39  40 0
 6-311+G(2d,p)
 ****
 1  2  3  4  5  16  17  18  19  20  21  22  23  24 0
 3-21G
 ****
 26  27  29  30  31  37  38  41  42  43  44  45  46  47 0
 3-21G
 ****
 48 0
 3-21G
 ****


