%nproc=1
%NoSave
%Mem=1900MB
#P OB98/GEN NMR

erre ene a

0 1
  C     1635.810    -899.255     328.434
  O     1635.144    -897.985     328.324
  P     1633.656    -897.715     328.863
  C     1634.218    -896.305     330.982
  O     1633.748    -897.515     330.451
  C     1635.261    -896.505     332.139
  O     1636.395    -897.255     331.622
  C     1635.796    -895.175     332.618
  O     1635.080    -894.415     333.567
  C     1637.259    -895.465     333.000
  O     1637.391    -895.735     334.398
  C     1637.587    -896.715     332.154
  N     1642.472    -896.635     330.607
  C     1641.972    -896.935     331.845
  N     1642.858    -897.245     332.802
  N     1640.678    -896.975     332.113
  C     1639.882    -896.545     331.077
  C     1640.288    -896.215     329.818
  C     1641.721    -896.265     329.492
  O     1642.213    -896.005     328.426
  N     1639.217    -895.855     329.044
  C     1638.184    -895.965     329.833
  N     1638.562    -896.385     331.126
  O     1632.593    -898.635     328.337
  O     1633.340    -896.225     328.310
  H     1637.030    -894.965     334.884
  H     1632.370    -896.215     328.127
  H     1643.467    -896.665     330.435
  H     1637.151    -895.765     329.565
  H     1638.046    -897.495     332.785
  H     1637.898    -894.585     332.801
  H     1643.853    -897.145     332.684
  H     1635.878    -894.515     331.709
  H     1642.491    -897.275     333.757
  H     1634.840    -897.135     332.937
  H     1633.352    -895.765     331.377
  H     1634.649    -895.675     330.206
  P     1633.707    -893.635     333.305
  C     1632.397    -895.135     334.936
  O     1632.502    -894.675     333.605
  O     1633.637    -893.455     331.727
  O     1633.577    -892.295     334.016
  H     1632.960    -892.775     331.478
  H     1631.773    -896.035     334.943
  H     1631.912    -894.385     335.562
  H     1633.401    -895.395     335.351
  H     1636.787    -899.183     328.004
  H     1635.245    -900.000     327.914
  H     1635.893    -899.526     329.466

 3  4  5  6  7  8  9  10  11  12  23  26  30  31 0
 6-311+G(2d,p)
 ****
 33  35  36  37  38 0
 6-311+G(2d,p)
 ****
 1  2  13  14  15  16  17  18  19  20  21  22  24  25 0
 3-21G
 ****
 27  28  29  32  34  39  40  41  42  43  44  45  46  47  48  49 0
 3-21G
 ****


