%nproc=1
%NoSave
%Mem=1900MB
#P OB98/GEN NMR

erre ene a

0 1
  C      142.428     -21.169     296.858
  O      143.089     -22.151     296.060
  P      142.750     -22.232     294.495
  C      141.067     -24.143     294.881
  O      142.223     -23.712     294.171
  C      140.679     -25.565     294.471
  O      140.383     -25.654     293.064
  C      141.781     -26.583     294.714
  O      141.896     -26.884     296.096
  C      141.321     -27.738     293.834
  O      140.328     -28.533     294.505
  C      140.688     -26.999     292.636
  N      141.524     -27.006     291.448
  C      141.402     -28.126     290.620
  O      140.651     -29.051     290.931
  N      142.149     -28.174     289.468
  C      142.948     -27.197     289.174
  N      143.661     -27.299     288.018
  C      143.114     -26.004     290.026
  C      142.386     -25.978     291.140
  O      143.809     -21.714     293.576
  O      141.409     -21.355     294.381
  H      140.233     -29.347     293.973
  H      141.376     -20.946     293.496
  H      143.788     -25.211     289.733
  H      142.446     -25.140     291.825
  H      139.725     -27.461     292.372
  H      142.149     -28.406     293.576
  H      142.734     -26.193     294.339
  H      139.776     -25.851     295.035
  H      143.536     -28.130     287.459
  H      140.239     -23.458     294.680
  H      144.269     -26.567     287.680
  H      141.269     -24.085     295.956
  P      143.129     -26.242     296.894
  C      144.756     -28.028     295.952
  O      144.230     -27.388     297.099
  O      142.531     -26.037     298.368
  O      143.635     -24.953     296.334
  H      142.921     -25.240     298.769
  H      145.687     -28.530     296.230
  H      144.968     -27.310     295.154
  H      144.045     -28.778     295.592
  H      142.764     -21.248     297.871
  H      141.371     -21.330     296.819
  H      142.654     -20.193     296.482

 3  4  5  6  7  8  9  10  11  12  13  23  27  28  29  30  32 0
 6-311+G(2d,p)
 ****
 34  35 0
 6-311+G(2d,p)
 ****
 1  2  14  15  16  17  18  19  20  21  22  24  25  26 0
 3-21G
 ****
 31  33  36  37  38  39  40  41  42  43  44  45  46 0
 3-21G
 ****


