%nproc=1
%NoSave
%Mem=1900MB
#P OB98/GEN NMR

erre ene a

0 1
  C        3.124      14.158     -35.025
  O        4.400      13.559     -35.076
  H        3.245      15.243     -35.092
  H        2.643      13.916     -34.073
  H        2.492      13.824     -35.851
  P        4.507      12.005     -35.439
  C        5.050      11.370     -32.998
  O        4.184      11.168     -34.107
  C        4.330      11.159     -31.665
  O        3.240      12.098     -31.533
  C        3.704       9.768     -31.557
  O        4.579       8.743     -31.123
  C        2.592      10.005     -30.540
  O        3.092       9.891     -29.197
  C        2.166      11.446     -30.832
  N       -2.934      11.738     -30.812
  C       -2.067      11.597     -29.746
  N       -2.636      11.457     -28.528
  N       -0.766      11.576     -29.873
  C       -0.345      11.629     -31.158
  C       -1.109      11.756     -32.297
  C       -2.547      11.833     -32.141
  O       -3.359      11.951     -33.053
  N       -0.328      11.780     -33.427
  C        0.897      11.593     -32.978
  N        0.941      11.522     -31.605
  O        6.083      11.768     -35.621
  O        3.754      11.579     -36.662
  H        2.367      10.098     -28.581
  H        6.239      11.017     -36.221
  H       -3.925      11.777     -30.653
  H        1.785      11.529     -33.597
  H        2.000      12.011     -29.907
  H        1.788       9.270     -30.641
  H       -3.629      11.351     -28.396
  H        3.244       9.482     -32.508
  H       -2.057      11.089     -27.771
  H        5.028      11.355     -30.843
  H        5.415      12.397     -33.067
  H        5.920      10.711     -33.071
  P        4.422       7.258     -31.701
  C        3.246       6.691     -29.450
  O        3.265       6.545     -30.853
  O        5.761       6.540     -31.200
  O        4.268       7.173     -33.181
  H        6.434       6.550     -31.906
  H        2.413       6.154     -29.047
  H        3.157       7.728     -29.200
  H        4.154       6.302     -29.039

 6  7  8  9  10  11  12  13  14  15  26  29  33  34 0
 6-311+G(2d,p)
 ****
 36  38  39  40  41 0
 6-311+G(2d,p)
 ****
 1  2  3  4  5  16  17  18  19  20  21  22  23  24  25 0
 3-21G
 ****
 27  28  30  31  32  35  37  42  43  44  45  46  47 0
 3-21G
 ****
 48  49 0
 3-21G
 ****


