%nproc=1
%NoSave
%Mem=1900MB
#P OB98/GEN NMR

erre ene a

0 1
  C     -186.331    -465.228    -897.430
  O     -185.423    -465.931    -898.260
  P     -185.561    -467.525    -898.300
  C     -184.815    -469.442    -896.700
  O     -184.649    -468.076    -897.100
  C     -183.461    -470.134    -896.580
  O     -182.547    -469.317    -895.840
  C     -183.501    -471.466    -895.830
  O     -184.016    -472.491    -896.670
  C     -182.047    -471.635    -895.470
  O     -181.317    -472.276    -896.540
  C     -181.560    -470.188    -895.260
  N     -181.323    -469.868    -893.860
  C     -180.213    -470.482    -893.290
  O     -179.518    -471.270    -893.950
  N     -179.939    -470.231    -891.950
  C     -180.706    -469.426    -891.280
  N     -180.392    -469.228    -889.970
  C     -181.905    -468.793    -891.850
  C     -182.161    -469.037    -893.140
  O     -184.729    -467.930    -899.620
  O     -186.967    -468.048    -898.350
  H     -181.769    -473.143    -896.670
  H     -185.055    -468.768    -900.000
  H     -182.509    -468.124    -891.240
  H     -183.011    -468.617    -893.650
  H     -180.630    -470.013    -895.810
  H     -181.926    -472.261    -894.570
  H     -184.121    -471.371    -894.930
  H     -183.047    -470.281    -897.600
  H     -179.577    -469.698    -889.610
  H     -185.424    -469.969    -897.440
  H     -180.908    -468.601    -889.360
  H     -185.349    -469.466    -895.730
  P     -184.524    -473.831    -895.960
  C     -183.477    -475.372    -894.180
  O     -183.231    -474.404    -895.200
  O     -184.687    -474.818    -897.200
  O     -185.783    -473.751    -895.160
  H     -185.071    -475.677    -896.920
  H     -182.524    -475.804    -893.890
  H     -184.118    -476.172    -894.580
  H     -183.952    -474.895    -893.340
  H     -186.133    -464.178    -897.494
  H     -186.213    -465.553    -896.417
  H     -187.333    -465.422    -897.752

 3  4  5  6  7  8  9  10  11  12  13  21  23  27  28  29  30  32 0
 6-311+G(2d,p)
 ****
 34  35 0
 6-311+G(2d,p)
 ****
 1  2  14  15  16  17  18  19  20  22  24  25  26 0
 3-21G
 ****
 31  33  36  37  38  39  40  41  42  43  44  45  46 0
 3-21G
 ****


