%nproc=1
%NoSave
%Mem=1900MB
#P OB98/GEN NMR

erre ene a

0 1
  C       89.920      94.117     363.566
  O       91.162      93.449     363.680
  H       89.606      94.472     364.550
  H       90.044      94.979     362.906
  H       89.159      93.455     363.145
  P       91.154      91.992     364.354
  C       91.260      90.753     362.076
  O       90.521      90.995     363.265
  C       90.460      89.860     361.125
  O       90.183      88.600     361.800
  C       89.123      90.456     360.670
  O       88.919      90.116     359.295
  C       88.105      89.713     361.516
  O       86.815      89.659     360.910
  C       88.772      88.350     361.658
  N       84.966      85.359     363.224
  C       85.394      85.704     361.988
  N       86.455      86.467     361.660
  C       87.144      86.830     362.758
  C       86.831      86.552     364.080
  C       85.669      85.790     364.297
  N       85.182      85.489     365.549
  N       87.746      87.152     364.922
  C       88.575      87.799     364.131
  N       88.249      87.636     362.810
  O       89.994      92.131     365.455
  O       92.444      91.553     364.957
  H       86.561      90.566     360.638
  H       90.374      92.479     366.284
  H       84.803      85.325     361.158
  H       89.398      88.421     364.452
  H       88.621      87.711     360.779
  H       88.006      90.209     362.491
  H       89.055      91.544     360.794
  H       91.096      89.623     360.260
  H       92.195      90.252     362.335
  H       84.288      85.032     365.609
  H       85.635      85.897     366.358
  H       91.491      91.708     361.594
  P       87.696      90.817     358.533
  C       89.251      91.201     356.478
  O       88.283      91.750     357.370
  O       87.152      91.872     359.611
  O       86.623      89.871     358.103
  H       86.184      91.981     359.517
  H       89.541      91.944     355.765
  H       88.829      90.361     355.966
  H       90.109      90.886     357.033

 6  7  8  9  10  11  12  13  14  15  25  28  32  33  34  35 0
 6-311+G(2d,p)
 ****
 36  39  40 0
 6-311+G(2d,p)
 ****
 1  2  3  4  5  16  17  18  19  20  21  22  23  24 0
 3-21G
 ****
 26  27  29  30  31  37  38  41  42  43  44  45  46  47 0
 3-21G
 ****
 48 0
 3-21G
 ****


