%nproc=1
%NoSave
%Mem=1900MB
#P OB98/GEN NMR

erre ene a

0 1
  C        0.240       7.087     -44.475
  O        0.078       7.997     -43.409
  H        0.464       6.100     -44.064
  H        1.072       7.399     -45.111
  H       -0.677       7.024     -45.066
  P       -0.286       9.515     -43.789
  C       -1.336      10.540     -41.640
  O       -0.159      10.329     -42.407
  C       -1.487       9.445     -40.580
  O       -0.283       9.392     -39.778
  C       -2.668       9.674     -39.635
  O       -3.349       8.437     -39.423
  C       -2.026      10.163     -38.350
  O       -2.825       9.877     -37.203
  C       -0.660       9.469     -38.391
  N        0.340      10.192     -37.607
  C        0.176      10.188     -36.219
  O       -0.784       9.606     -35.710
  N        1.067      10.885     -35.444
  C        2.006      11.579     -36.009
  N        2.844      12.266     -35.189
  C        2.188      11.651     -37.472
  C        1.332      10.937     -38.202
  O       -1.862       9.452     -44.046
  O        0.493      10.091     -44.924
  H       -2.251       9.948     -36.409
  H       -2.187      10.270     -44.494
  H        2.975      12.255     -37.897
  H        1.389      10.932     -39.285
  H       -0.735       8.444     -38.003
  H       -1.894      11.251     -38.401
  H       -3.380      10.406     -40.016
  H       -1.566       8.478     -41.089
  H        2.682      12.201     -34.191
  H       -2.203      10.525     -42.308
  H        3.590      12.861     -35.519
  H       -1.277      11.517     -41.150
  P       -4.491       8.071     -40.491
  C       -4.522       5.483     -40.639
  O       -5.105       6.646     -40.073
  O       -3.668       7.759     -41.826
  O       -5.500       9.155     -40.682
  H       -3.679       8.532     -42.421
  H       -5.030       4.615     -40.273
  H       -3.488       5.433     -40.366
  H       -4.608       5.523     -41.705

 6  7  8  9  10  11  12  13  14  15  16  26  30  31  32  33  35 0
 6-311+G(2d,p)
 ****
 37  38 0
 6-311+G(2d,p)
 ****
 1  2  3  4  5  17  18  19  20  21  22  23  24  25 0
 3-21G
 ****
 27  28  29  34  36  39  40  41  42  43  44  45  46 0
 3-21G
 ****


