%nproc=1
%NoSave
%Mem=1900MB
#P OB98/GEN NMR

erre ene a

0 1
  C     -338.529     809.588     260.313
  O     -337.288     810.235     260.157
  H     -338.803     809.059     259.395
  H     -338.440     808.849     261.119
  H     -339.304     810.311     260.579
  P     -337.186     811.328     258.981
  C     -336.288     809.519     257.350
  O     -337.257     810.538     257.580
  C     -336.646     808.740     256.098
  O     -336.751     809.696     254.984
  C     -335.603     807.661     255.684
  O     -336.242     806.380     255.615
  C     -335.158     808.054     254.290
  O     -335.015     806.944     253.404
  C     -336.267     809.006     253.812
  N     -335.911     809.935     248.822
  C     -336.748     809.151     249.528
  N     -336.866     809.034     250.862
  C     -336.007     809.856     251.487
  C     -335.102     810.731     250.917
  C     -335.048     810.749     249.505
  N     -334.141     811.512     248.793
  N     -334.363     811.394     251.881
  C     -334.802     810.907     253.024
  N     -335.771     809.950     252.840
  O     -335.662     811.814     259.060
  O     -338.135     812.475     259.108
  H     -335.811     806.390     253.515
  H     -335.632     812.796     259.050
  H     -337.416     808.530     248.928
  H     -334.437     811.159     254.018
  H     -337.115     808.454     253.366
  H     -334.202     808.581     254.352
  H     -334.753     807.623     256.369
  H     -337.628     808.290     256.215
  H     -336.265     808.833     258.203
  H     -334.113     811.369     247.795
  H     -333.441     812.032     249.294
  H     -335.299     809.992     257.268
  P     -335.965     805.365     256.831
  C     -334.121     803.941     255.662
  O     -334.448     804.866     256.703
  O     -336.814     804.075     256.424
  O     -336.361     805.903     258.169
  H     -337.076     803.579     257.228
  H     -333.078     803.706     255.708
  H     -334.346     804.379     254.712
  H     -334.694     803.046     255.787

 6  7  8  9  10  11  12  13  14  15  25  28  32  33  34  35 0
 6-311+G(2d,p)
 ****
 36  39  40 0
 6-311+G(2d,p)
 ****
 1  2  3  4  5  16  17  18  19  20  21  22  23  24 0
 3-21G
 ****
 26  27  29  30  31  37  38  41  42  43  44  45  46  47  48 0
 3-21G
 ****


