%nproc=1
%NoSave
%Mem=1900MB
#P OB98/GEN NMR

erre ene a

0 1
  C      -23.736    -148.104     146.611
  O      -23.789    -148.445     145.240
  H      -22.911    -147.410     146.768
  H      -23.552    -149.007     147.204
  H      -24.666    -147.630     146.932
  P      -25.106    -149.207     144.727
  C      -23.961    -151.526     144.518
  O      -24.958    -150.748     145.165
  C      -24.391    -152.994     144.458
  O      -25.569    -153.101     143.612
  C      -23.321    -153.926     143.877
  O      -23.345    -155.164     144.600
  C      -23.782    -154.158     142.448
  O      -23.300    -155.389     141.906
  C      -25.294    -154.097     142.611
  N      -27.127    -156.027     138.326
  C      -26.605    -156.663     139.443
  N      -26.561    -158.012     139.408
  N      -26.171    -156.025     140.495
  C      -26.310    -154.681     140.404
  C      -26.804    -153.935     139.365
  C      -27.258    -154.650     138.187
  O      -27.706    -154.150     137.160
  N      -26.753    -152.590     139.639
  C      -26.224    -152.525     140.848
  N      -25.952    -153.768     141.360
  O      -24.903    -149.249     143.138
  O      -26.402    -148.565     145.095
  H      -22.329    -155.411     142.045
  H      -25.602    -148.721     142.706
  H      -27.438    -156.571     137.535
  H      -26.022    -151.612     141.390
  H      -25.716    -155.055     142.953
  H      -23.426    -153.341     141.810
  H      -26.923    -158.568     138.654
  H      -22.313    -153.506     143.919
  H      -26.218    -158.498     140.227
  H      -24.684    -153.314     145.458
  H      -23.024    -151.440     145.077
  H      -23.806    -151.142     143.503
  P      -22.325    -155.309     145.831
  C      -20.737    -156.980     144.640
  O      -20.877    -155.700     145.246
  O      -22.814    -156.654     146.552
  O      -22.340    -154.145     146.770
  H      -23.256    -156.435     147.396
  H      -19.731    -157.105     144.298
  H      -21.408    -157.057     143.810
  H      -20.967    -157.741     145.356

 6  7  8  9  10  11  12  13  14  15  26  29  33  34 0
 6-311+G(2d,p)
 ****
 36  38  39  40  41 0
 6-311+G(2d,p)
 ****
 1  2  3  4  5  16  17  18  19  20  21  22  23  24  25 0
 3-21G
 ****
 27  28  30  31  32  35  37  42  43  44  45  46  47 0
 3-21G
 ****
 48  49 0
 3-21G
 ****


