%nproc=1
%NoSave
%Mem=1900MB
#P OB98/GEN NMR

erre ene a

0 1
  C     -203.314     -78.967     121.780
  O     -203.890     -77.724     122.132
  H     -202.241     -78.925     121.985
  H     -203.458     -79.170     120.716
  H     -203.752     -79.773     122.375
  P     -205.466     -77.532     121.919
  C     -205.406     -75.147     120.932
  O     -205.740     -75.958     122.051
  C     -205.731     -73.688     121.230
  O     -207.158     -73.491     121.285
  C     -205.171     -73.187     122.561
  O     -203.801     -72.846     122.424
  C     -206.068     -71.982     122.799
  O     -205.644     -70.889     121.963
  C     -207.432     -72.515     122.328
  N     -211.204     -71.926     125.663
  C     -210.629     -71.010     124.804
  N     -211.098     -69.746     124.877
  N     -209.668     -71.303     123.967
  C     -209.252     -72.587     124.058
  C     -209.733     -73.581     124.878
  C     -210.834     -73.260     125.760
  O     -211.384     -74.047     126.525
  N     -209.017     -74.742     124.733
  C     -208.132     -74.461     123.798
  N     -208.223     -73.159     123.365
  O     -206.359     -78.376     122.779
  O     -205.686     -77.816     120.361
  H     -204.934     -70.428     122.444
  H     -205.908     -78.751     120.202
  H     -211.930     -71.635     126.298
  H     -207.407     -75.159     123.398
  H     -208.056     -71.730     121.887
  H     -206.049     -71.630     123.830
  H     -211.617     -69.413     125.682
  H     -205.336     -73.907     123.368
  H     -210.655     -69.049     124.293
  H     -205.355     -73.083     120.394
  H     -205.993     -75.505     120.080
  H     -204.343     -75.246     120.694
  P     -202.709     -73.374     123.475
  C     -201.771     -71.000     123.880
  O     -201.511     -72.311     123.396
  O     -202.295     -74.795     123.287
  O     -203.348     -73.071     124.906
  H     -203.918     -73.803     125.247
  H     -200.893     -70.398     123.769
  H     -202.041     -71.049     124.914
  H     -202.574     -70.566     123.322

 6  7  8  9  10  11  12  13  14  15  26  29  33  34 0
 6-311+G(2d,p)
 ****
 36  38  39  40  41 0
 6-311+G(2d,p)
 ****
 1  2  3  4  5  16  17  18  19  20  21  22  23  24  25 0
 3-21G
 ****
 27  28  30  31  32  35  37  42  43  44  45  46  47 0
 3-21G
 ****
 48  49 0
 3-21G
 ****


