%nproc=1
%NoSave
%Mem=1900MB
#P OB98/GEN NMR

erre ene a

0 1
  C     -178.950     136.656     -15.130
  O     -178.356     135.705     -14.270
  P     -177.369     134.584     -14.851
  C     -175.234     136.017     -14.655
  O     -176.162     135.394     -15.538
  C     -173.806     135.561     -14.958
  O     -173.680     134.137     -14.781
  C     -173.353     135.845     -16.384
  O     -173.018     137.212     -16.539
  C     -172.177     134.885     -16.514
  O     -170.984     135.444     -15.944
  C     -172.659     133.671     -15.691
  N     -173.140     132.583     -16.532
  C     -172.157     131.740     -17.061
  O     -170.965     131.954     -16.836
  N     -172.547     130.702     -17.874
  C     -173.804     130.541     -18.151
  N     -174.125     129.503     -18.971
  C     -174.867     131.427     -17.639
  C     -174.468     132.418     -16.846
  O     -178.014     133.548     -15.707
  O     -176.687     133.983     -13.532
  H     -170.445     134.684     -15.643
  H     -177.314     133.402     -13.035
  H     -175.899     131.259     -17.908
  H     -175.182     133.118     -16.429
  H     -171.844     133.284     -15.065
  H     -171.954     134.649     -17.559
  H     -174.142     135.556     -17.088
  H     -173.133     136.054     -14.243
  H     -173.363     128.937     -19.324
  H     -175.491     135.736     -13.630
  H     -175.065     129.309     -19.278
  H     -175.321     137.105     -14.747
  P     -172.960     137.857     -18.002
  C     -175.505     138.147     -17.848
  O     -174.419     137.730     -18.652
  O     -171.835     137.389     -18.865
  O     -172.832     139.428     -17.711
  H     -172.156     139.806     -18.304
  H     -176.369     138.329     -18.492
  H     -175.263     139.068     -17.309
  H     -175.753     137.359     -17.134
  H     -179.571     137.314     -14.559
  H     -179.544     136.152     -15.863
  H     -178.185     137.222     -15.619

 3  4  5  6  7  8  9  10  11  12  13  23  27  28  29  30  32 0
 6-311+G(2d,p)
 ****
 34  35 0
 6-311+G(2d,p)
 ****
 1  2  14  15  16  17  18  19  20  21  22  24  25  26 0
 3-21G
 ****
 31  33  36  37  38  39  40  41  42  43  44  45  46 0
 3-21G
 ****


