%nproc=1
%NoSave
%Mem=1900MB
#P OB98/GEN NMR

erre ene a

0 1
  C      449.197    -254.461    -373.184
  O      450.193    -254.080    -374.120
  P      449.755    -253.912    -375.654
  C      450.797    -251.558    -375.902
  O      449.608    -252.334    -375.914
  C      450.572    -250.207    -376.569
  O      450.129    -250.424    -377.938
  C      449.518    -249.326    -375.878
  O      449.993    -247.976    -375.813
  C      448.345    -249.354    -376.843
  O      447.518    -248.203    -376.714
  C      449.085    -249.462    -378.177
  N      445.655    -247.882    -381.533
  C      446.474    -247.150    -380.695
  N      446.312    -245.807    -380.721
  N      447.366    -247.679    -379.905
  C      447.443    -249.031    -380.008
  C      446.694    -249.863    -380.805
  C      445.670    -249.266    -381.633
  O      444.850    -249.870    -382.329
  N      447.073    -251.174    -380.647
  C      448.042    -251.135    -379.753
  N      448.270    -249.861    -379.302
  O      448.244    -254.440    -375.648
  O      450.586    -254.655    -376.639
  H      448.096    -247.422    -376.818
  H      448.147    -255.161    -376.301
  H      444.974    -247.422    -382.107
  H      448.582    -251.998    -379.387
  H      449.558    -248.499    -378.429
  H      447.736    -250.243    -376.647
  H      445.666    -245.328    -381.330
  H      449.234    -249.669    -374.878
  H      446.916    -245.249    -380.127
  H      451.534    -249.679    -376.627
  H      451.584    -252.098    -376.440
  H      451.117    -251.418    -374.863
  P      449.596    -247.150    -374.490
  C      450.781    -248.592    -372.670
  O      449.570    -248.220    -373.301
  O      448.056    -246.800    -374.726
  O      450.433    -245.937    -374.262
  H      447.803    -246.008    -374.216
  H      451.617    -247.954    -372.981
  H      451.013    -249.626    -372.923
  H      450.655    -248.507    -371.589
  H      449.632    -254.533    -372.209
  H      448.789    -255.410    -373.464
  H      448.418    -253.727    -373.173

 3  4  5  6  7  8  9  10  11  12  23  26  30  31  33  0
 6-311+G(2d,p)
 ****
 35  36  37  38 0
 6-311+G(2d,p)
 ****
 1  2  13  14  15  16  17  18  19  20  21  22  24  25  27  28  29 0
 3-21G
 ****
 32  34  39  40  41  42  43  44  45  46  47  48  49 0
 3-21G
 ****


