%nproc=1
%NoSave
%Mem=1900MB
#P OB98/GEN NMR

erre ene a

0 1
  C      266.597    -889.436    1092.335
  O      267.868    -890.056    1092.478
  H      266.377    -889.336    1091.261
  H      266.601    -888.446    1092.781
  H      265.815    -890.056    1092.781
  P      268.345    -890.496    1093.944
  C      267.748    -892.946    1093.450
  O      268.764    -892.036    1093.845
  C      268.326    -894.006    1092.488
  O      268.570    -893.376    1091.195
  C      269.652    -894.616    1092.965
  O      269.705    -895.956    1092.441
  C      270.652    -893.736    1092.227
  O      271.973    -894.236    1092.274
  C      269.967    -893.626    1090.872
  N      270.474    -892.576    1089.978
  C      271.323    -892.966    1088.947
  O      271.684    -894.126    1088.744
  N      271.794    -891.956    1088.151
  C      271.478    -890.616    1088.271
  O      271.913    -889.766    1087.494
  C      270.577    -890.266    1089.378
  C      270.119    -891.256    1090.162
  O      267.423    -890.146    1095.055
  O      269.775    -889.766    1094.109
  H      269.669    -888.966    1094.673
  H      272.010    -895.096    1091.790
  H      272.398    -892.206    1087.392
  H      270.329    -889.236    1089.510
  H      269.444    -891.036    1090.997
  H      270.003    -894.586    1090.354
  H      270.707    -892.756    1092.729
  H      269.768    -894.636    1094.035
  H      267.566    -894.776    1092.329
  H      266.951    -892.386    1092.935
  H      267.328    -893.436    1094.328
  P      270.631    -897.116    1093.072
  C      268.935    -899.056    1093.389
  O      270.032    -898.536    1092.620
  O      270.850    -897.006    1094.541
  O      272.019    -897.026    1092.281
  H      272.742    -897.386    1092.849
  H      268.633    -900.000    1092.986
  H      268.114    -898.371    1093.347
  H      269.241    -899.184    1094.406

 6  7  8  9  10  11  12  13  14  15  16  27  31  32  33  34  35 0
 6-311+G(2d,p)
 ****
 36  37 0
 6-311+G(2d,p)
 ****
 1  2  3  4  5  17  18  19  20  21  22  23  24  25 0
 3-21G
 ****
 26  28  29  30  38  39  40  41  42  43  44  45 0
 3-21G
 ****


