%nproc=1
%NoSave
%Mem=1900MB
#P OB98/GEN NMR

erre ene a

0 1
  C       87.826    -253.662     173.856
  O       87.137    -253.022     174.912
  H       88.898    -253.609     174.056
  H       87.617    -253.161     172.905
  H       87.526    -254.712     173.798
  P       85.538    -252.957     174.791
  C       85.433    -253.880     177.194
  O       85.015    -254.052     175.846
  C       84.813    -254.960     178.087
  O       83.397    -254.690     178.221
  C       84.965    -256.374     177.522
  O       85.208    -257.286     178.593
  C       83.605    -256.664     176.911
  O       83.320    -258.058     176.844
  C       82.676    -255.871     177.833
  N       78.333    -257.732     175.904
  C       79.318    -258.306     176.630
  N       80.439    -257.730     177.117
  C       80.462    -256.416     176.828
  C       79.534    -255.695     176.101
  C       78.424    -256.415     175.616
  N       77.430    -255.849     174.857
  N       79.929    -254.377     175.981
  C       81.070    -254.299     176.644
  N       81.439    -255.514     177.159
  O       84.988    -253.086     173.411
  O       85.211    -251.579     175.535
  H       83.982    -258.480     176.259
  H       85.725    -251.487     176.358
  H       79.199    -259.365     176.841
  H       81.669    -253.402     176.764
  H       82.405    -256.432     178.736
  H       83.567    -256.261     175.888
  H       85.766    -256.448     176.785
  H       85.250    -254.884     179.090
  H       85.132    -252.890     177.561
  H       76.662    -256.432     174.561
  H       77.470    -254.857     174.646
  H       86.524    -253.946     177.224
  P       86.667    -257.938     178.724
  C       87.319    -256.583     180.823
  O       87.631    -256.892     179.467
  O       87.222    -258.550     177.481
  O       86.443    -259.053     179.855
  H       86.974    -259.843     179.634
  H       88.031    -255.880     181.201
  H       87.354    -257.477     181.410
  H       86.337    -256.160     180.876

 6  7  8  9  10  11  12  13  14  15  25  28  32  33  34  35 0
 6-311+G(2d,p)
 ****
 36  39  40 0
 6-311+G(2d,p)
 ****
 1  2  3  4  5  16  17  18  19  20  21  22  23  24 0
 3-21G
 ****
 26  27  29  30  31  37  38  41  42  43  44  45  46  47 0
 3-21G
 ****
 48 0
 3-21G
 ****


