%nproc=1
%NoSave
%Mem=1900MB
#P OB98/GEN NMR

erre ene a

0 1
  C     -161.663     160.405     -23.773
  O     -161.627     159.931     -22.439
  H     -161.338     161.449     -23.784
  H     -162.678     160.354     -24.176
  H     -160.987     159.819     -24.401
  P     -162.208     158.469     -22.138
  C     -160.029     157.421     -21.217
  O     -160.963     157.472     -22.290
  C     -158.711     158.064     -21.639
  O     -158.911     159.460     -21.941
  C     -157.648     158.023     -20.551
  O     -157.086     156.731     -20.442
  C     -156.706     159.109     -21.031
  O     -155.845     158.630     -22.072
  C     -157.700     160.161     -21.576
  N     -157.979     161.224     -20.616
  C     -156.862     161.840     -20.040
  O     -155.726     161.486     -20.351
  N     -157.069     162.827     -19.108
  C     -158.275     163.179     -18.793
  N     -158.410     164.163     -17.864
  C     -159.478     162.566     -19.387
  C     -159.258     161.601     -20.278
  O     -163.426     158.055     -22.905
  O     -162.469     158.485     -20.559
  H     -156.437     158.315     -22.784
  H     -163.371     158.799     -20.365
  H     -160.464     162.896     -19.098
  H     -160.088     161.099     -20.765
  H     -157.310     160.620     -22.493
  H     -156.075     159.477     -20.223
  H     -158.074     158.342     -19.595
  H     -158.361     157.568     -22.553
  H     -157.556     164.549     -17.475
  H     -159.874     156.365     -20.973
  H     -159.291     164.578     -17.606
  H     -160.430     157.927     -20.331
  P     -157.683     155.666     -19.403
  C     -157.237     153.396     -20.541
  O     -158.186     154.431     -20.300
  O     -158.685     156.208     -18.440
  O     -156.372     155.079     -18.693
  H     -155.988     155.727     -18.054
  H     -157.685     152.635     -21.145
  H     -156.925     152.974     -19.609
  H     -156.388     153.802     -21.050

 6  7  8  9  10  11  12  13  14  15  16  26  30  31  32  33  35 0
 6-311+G(2d,p)
 ****
 37  38 0
 6-311+G(2d,p)
 ****
 1  2  3  4  5  17  18  19  20  21  22  23  24  25 0
 3-21G
 ****
 27  28  29  34  36  39  40  41  42  43  44  45  46 0
 3-21G
 ****


