%nproc=1
%NoSave
%Mem=1900MB
#P OB98/GEN NMR

erre ene a

0 1
  C       40.632    -896.720     257.517
  O       41.219    -896.500     258.791
  H       40.976    -895.940     256.841
  H       39.540    -896.670     257.586
  H       40.943    -897.690     257.118
  P       40.868    -897.520     259.977
  C       39.146    -897.460     261.928
  O       39.670    -896.810     260.777
  C       38.774    -896.430     263.001
  O       37.825    -895.480     262.500
  C       38.122    -897.030     264.243
  O       39.018    -897.730     265.092
  C       37.594    -895.750     264.879
  O       38.680    -895.040     265.504
  C       37.059    -895.010     263.645
  N       35.624    -895.230     263.415
  C       34.737    -894.410     264.151
  O       35.176    -893.580     264.939
  N       33.378    -894.600     263.989
  C       32.950    -895.520     263.192
  N       31.598    -895.670     263.083
  C       33.847    -896.410     262.417
  C       35.162    -896.200     262.581
  O       42.023    -897.970     260.821
  O       40.088    -898.720     259.256
  H       39.042    -895.630     266.191
  H       39.858    -899.390     259.955
  H       33.428    -897.190     261.789
  H       35.870    -896.820     262.051
  H       37.241    -893.920     263.729
  H       36.841    -895.940     265.644
  H       37.269    -897.660     263.970
  H       39.699    -895.890     263.256
  H       31.013    -895.050     263.627
  H       39.912    -898.160     262.289
  H       31.167    -896.410     262.537
  H       38.253    -898.020     261.653
  P       38.368    -898.720     266.175
  C       36.609    -898.420     268.091
  O       37.455    -897.800     267.144
  O       39.614    -899.120     267.100
  O       37.651    -899.910     265.606
  H       39.968    -900.000     266.823
  H       36.082    -897.670     268.643
  H       37.197    -899.010     268.762
  H       35.907    -899.049     267.584

 6  7  8  9  10  11  12  13  14  15  16  26  30  31  32  33  35 0
 6-311+G(2d,p)
 ****
 37  38 0
 6-311+G(2d,p)
 ****
 1  2  3  4  5  17  18  19  20  21  22  23  24  25 0
 3-21G
 ****
 27  28  29  34  36  39  40  41  42  43  44  45  46 0
 3-21G
 ****


