%nproc=1
%NoSave
%Mem=1900MB
#P OB98/GEN NMR

erre ene a

0 1
  C      -33.976     275.221      84.938
  O      -33.680     275.866      86.167
  P      -32.203     275.827      86.800
  C      -30.687     273.908      87.643
  O      -32.001     274.320      87.317
  C      -30.492     272.429      87.296
  O      -30.841     272.232      85.901
  C      -29.055     271.917      87.487
  O      -29.149     270.557      87.927
  C      -28.478     271.991      86.088
  O      -27.362     271.136      85.912
  C      -29.706     271.623      85.247
  N      -29.594     272.069      83.865
  C      -29.126     271.153      82.925
  O      -28.796     270.014      83.257
  N      -29.038     271.545      81.610
  C      -29.309     272.770      81.281
  N      -29.267     273.094      79.959
  C      -29.702     273.801      82.264
  C      -29.846     273.376      83.517
  O      -31.933     276.875      87.821
  O      -31.230     275.880      85.536
  H      -26.617     271.487      86.434
  H      -31.048     276.800      85.227
  H      -29.892     274.814      81.944
  H      -30.153     274.056      84.298
  H      -29.873     270.537      85.277
  H      -28.154     273.016      85.882
  H      -28.498     272.500      88.227
  H      -31.193     271.839      87.894
  H      -29.163     272.325      79.306
  H      -30.542     274.036      88.719
  H      -29.763     273.902      79.604
  H      -29.958     274.535      87.117
  P      -27.904     269.930      88.727
  C      -25.353     269.736      88.300
  O      -26.639     269.917      87.749
  O      -28.303     268.374      88.780
  O      -27.682     270.440      90.116
  H      -27.869     267.959      89.549
  H      -24.614     269.748      87.490
  H      -25.285     268.774      88.816
  H      -25.117     270.549      88.997
  H      -35.008     275.368      84.698
  H      -33.776     274.174      85.028
  H      -33.367     275.635      84.162

 3  4  5  6  7  8  9  10  11  12  13  23  27  28  29  30  32 0
 6-311+G(2d,p)
 ****
 34  35 0
 6-311+G(2d,p)
 ****
 1  2  14  15  16  17  18  19  20  21  22  24  25  26 0
 3-21G
 ****
 31  33  36  37  38  39  40  41  42  43  44  45  46 0
 3-21G
 ****


