%nproc=1
%NoSave
%Mem=1900MB
#P OB98/GEN NMR

erre ene a

0 1
  C       -2.770    -114.457    -148.245
  O       -4.078    -114.565    -147.721
  H       -2.085    -114.986    -147.578
  H       -2.466    -113.409    -148.297
  H       -2.713    -114.914    -149.237
  P       -5.282    -113.865    -148.520
  C       -5.951    -112.616    -146.349
  O       -5.551    -112.502    -147.707
  C       -5.272    -111.540    -145.508
  O       -3.881    -111.392    -145.867
  C       -5.856    -110.139    -145.663
  O       -7.111    -109.968    -145.027
  C       -4.757    -109.324    -145.006
  O       -4.843    -109.462    -143.576
  C       -3.496    -110.023    -145.564
  N       -2.966    -109.362    -146.757
  C       -2.032    -108.342    -146.544
  O       -1.693    -108.026    -145.405
  N       -1.524    -107.673    -147.635
  C       -1.930    -107.982    -148.827
  N       -1.399    -107.283    -149.870
  C       -2.929    -109.036    -149.094
  C       -3.396    -109.679    -148.027
  O       -6.487    -114.714    -148.768
  O       -4.605    -113.310    -149.861
  H       -5.738    -109.173    -143.316
  H       -5.312    -112.875    -150.398
  H       -3.256    -109.233    -150.104
  H       -4.140    -110.462    -148.141
  H       -2.705    -110.069    -144.804
  H       -4.818    -108.258    -145.232
  H       -5.912    -109.855    -146.721
  H       -5.301    -111.874    -144.461
  H       -0.717    -106.566    -149.654
  H       -5.683    -113.618    -145.997
  H       -1.714    -107.403    -150.823
  H       -7.033    -112.488    -146.265
  P       -8.403    -109.881    -145.980
  C       -8.587    -107.343    -145.397
  O       -8.546    -108.342    -146.403
  O       -9.614    -110.125    -144.970
  O       -8.410    -110.838    -147.132
  H       -9.916    -111.054    -145.008
  H       -8.684    -106.380    -145.854
  H       -7.684    -107.376    -144.824
  H       -9.424    -107.519    -144.754

 6  7  8  9  10  11  12  13  14  15  16  26  30  31  32  33  35 0
 6-311+G(2d,p)
 ****
 37  38 0
 6-311+G(2d,p)
 ****
 1  2  3  4  5  17  18  19  20  21  22  23  24  25 0
 3-21G
 ****
 27  28  29  34  36  39  40  41  42  43  44  45  46 0
 3-21G
 ****


