%nproc=1
%NoSave
%Mem=1900MB
#P OB98/GEN NMR

erre ene a

0 1
  C       -8.502    -344.249     174.897
  O       -9.414    -344.828     173.982
  H       -8.647    -344.715     175.876
  H       -8.679    -343.174     174.990
  H       -7.474    -344.433     174.575
  P       -9.481    -344.233     172.492
  C       -7.859    -346.118     171.748
  O       -8.105    -344.719     171.809
  C       -7.556    -346.542     170.317
  O       -6.272    -346.037     169.884
  C       -7.470    -348.049     170.095
  O       -8.733    -348.697     170.105
  C       -6.811    -348.081     168.727
  O       -7.779    -347.762     167.715
  C       -5.761    -346.951     168.870
  N       -4.436    -347.448     169.252
  C       -3.823    -348.345     168.365
  O       -4.388    -348.674     167.321
  N       -2.593    -348.864     168.700
  C       -2.036    -348.541     169.823
  N       -0.844    -349.124     170.127
  C       -2.641    -347.594     170.783
  C       -3.824    -347.095     170.443
  O       -9.767    -342.771     172.377
  O      -10.554    -345.153     171.741
  H       -8.524    -348.388     167.822
  H      -10.640    -344.818     170.815
  H       -2.135    -347.362     171.711
  H       -4.341    -346.405     171.103
  H       -5.668    -346.381     167.938
  H       -6.390    -349.065     168.473
  H       -6.790    -348.513     170.824
  H       -8.318    -346.084     169.665
  H       -0.477    -349.807     169.464
  H       -8.744    -346.636     172.137
  H       -0.487    -349.148     171.075
  H       -6.996    -346.379     172.376
  P       -8.800    -350.220     170.608
  C      -10.110    -349.720     172.807
  O       -8.906    -350.173     172.211
  O       -7.311    -350.748     170.340
  O       -9.841    -351.081     169.954
  H       -7.244    -351.192     169.478
  H      -10.014    -349.751     173.872
  H      -10.918    -350.352     172.503
  H      -10.306    -348.715     172.496

 6  7  8  9  10  11  12  13  14  15  16  26  30  31  32  33  35 0
 6-311+G(2d,p)
 ****
 37  38 0
 6-311+G(2d,p)
 ****
 1  2  3  4  5  17  18  19  20  21  22  23  24  25 0
 3-21G
 ****
 27  28  29  34  36  39  40  41  42  43  44  45  46 0
 3-21G
 ****


