%nproc=1
%NoSave
%Mem=1900MB
#P OB98/GEN NMR

erre ene a

0 1
  C     -267.792    -133.915    -291.034
  O     -267.860    -132.522    -291.266
  H     -268.262    -134.126    -290.067
  H     -266.756    -134.252    -291.000
  H     -268.340    -134.454    -291.809
  P     -267.136    -131.933    -292.573
  C     -265.254    -131.075    -291.005
  O     -265.583    -131.845    -292.158
  C     -263.921    -130.356    -291.220
  O     -262.849    -131.299    -291.424
  C     -263.874    -129.437    -292.443
  O     -264.592    -128.228    -292.272
  C     -262.373    -129.218    -292.541
  O     -261.954    -128.283    -291.534
  C     -261.833    -130.635    -292.234
  N     -261.558    -131.415    -293.439
  C     -260.447    -131.020    -294.199
  O     -259.758    -130.063    -293.851
  N     -260.164    -131.700    -295.363
  C     -260.932    -132.670    -295.747
  N     -260.638    -133.274    -296.933
  C     -262.107    -133.132    -294.972
  C     -262.357    -132.471    -293.843
  O     -267.716    -130.678    -293.145
  O     -267.121    -133.157    -293.607
  H     -262.102    -128.709    -290.668
  H     -266.691    -132.839    -294.438
  H     -262.713    -133.945    -295.341
  H     -263.207    -132.736    -293.227
  H     -260.925    -130.587    -291.627
  H     -262.059    -128.814    -293.511
  H     -264.210    -129.971    -293.340
  H     -263.690    -129.805    -290.294
  H     -259.855    -132.905    -297.456
  H     -265.202    -131.750    -290.148
  H     -261.324    -133.837    -297.424
  H     -266.027    -130.323    -290.822
  P     -265.329    -127.604    -293.556
  C     -263.452    -126.010    -294.403
  O     -264.174    -127.213    -294.601
  O     -265.851    -126.186    -293.014
  O     -266.430    -128.438    -294.142
  H     -266.772    -126.252    -292.695
  H     -262.725    -125.898    -295.180
  H     -262.958    -126.043    -293.454
  H     -264.128    -125.181    -294.425

 6  7  8  9  10  11  12  13  14  15  16  26  30  31  32  33  35 0
 6-311+G(2d,p)
 ****
 37  38 0
 6-311+G(2d,p)
 ****
 1  2  3  4  5  17  18  19  20  21  22  23  24  25 0
 3-21G
 ****
 27  28  29  34  36  39  40  41  42  43  44  45  46 0
 3-21G
 ****


