%nproc=1
%NoSave
%Mem=1900MB
#P OB98/GEN NMR

erre ene a

0 1
  C      -85.236     -59.442    -523.302
  O      -85.249     -59.472    -521.887
  P      -83.997     -60.156    -521.145
  C      -83.714     -58.299    -519.348
  O      -83.163     -58.965    -520.474
  C      -83.747     -56.788    -519.588
  O      -84.669     -56.466    -520.648
  C      -84.206     -55.975    -518.388
  O      -83.168     -55.763    -517.447
  C      -84.595     -54.666    -519.058
  O      -83.417     -53.876    -519.308
  C      -85.207     -55.149    -520.377
  N      -89.395     -52.796    -518.770
  C      -88.086     -52.346    -518.813
  N      -87.858     -51.115    -518.294
  N      -87.100     -53.034    -519.315
  C      -87.474     -54.250    -519.783
  C      -88.736     -54.803    -519.799
  C      -89.821     -54.034    -519.230
  O      -90.986     -54.398    -519.114
  N      -88.728     -56.051    -520.365
  C      -87.467     -56.253    -520.698
  N      -86.660     -55.209    -520.322
  O      -83.059     -60.625    -522.357
  O      -84.353     -61.288    -520.238
  H      -83.711     -53.071    -519.775
  H      -82.415     -61.286    -522.046
  H      -90.121     -52.228    -518.366
  H      -87.090     -57.147    -521.185
  H      -84.932     -54.503    -521.217
  H      -85.259     -54.055    -518.438
  H      -88.568     -50.564    -517.840
  H      -85.093     -56.423    -517.921
  H      -86.898     -50.788    -518.257
  H      -82.740     -56.474    -519.905
  H      -83.101     -58.513    -518.466
  H      -84.725     -58.675    -519.167
  P      -83.276     -56.562    -516.058
  C      -80.952     -57.721    -516.102
  O      -82.355     -57.859    -516.237
  O      -84.768     -57.145    -516.094
  O      -83.021     -55.731    -514.844
  H      -85.104     -57.285    -515.182
  H      -80.510     -58.717    -515.988
  H      -80.697     -57.124    -515.223
  H      -80.534     -57.253    -517.001
  H      -86.124     -58.961    -523.657
  H      -85.197     -60.442    -523.680
  H      -84.378     -58.899    -523.639

 3  4  5  6  7  8  9  10  11  12  23  26  30  31 0
 6-311+G(2d,p)
 ****
 33  35  36  37  38 0
 6-311+G(2d,p)
 ****
 1  2  13  14  15  16  17  18  19  20  21  22  24  25 0
 3-21G
 ****
 27  28  29  32  34  39  40  41  42  43  44  45  46  47  48  49 0
 3-21G
 ****


