%nproc=1
%NoSave
%Mem=1900MB
#P OB98/GEN NMR

erre ene a

0 1
  C      317.200    -740.769    -234.525
  O      318.011    -740.891    -235.681
  P      317.279    -740.886    -237.115
  C      319.655    -740.112    -237.958
  O      318.454    -740.837    -238.204
  C      320.749    -740.570    -238.923
  O      320.216    -740.708    -240.248
  C      321.921    -739.599    -239.050
  O      322.802    -739.681    -237.934
  C      322.524    -740.050    -240.363
  O      323.359    -741.210    -240.175
  C      321.277    -740.413    -241.191
  N      320.872    -739.374    -242.136
  C      321.272    -739.560    -243.454
  O      321.926    -740.534    -243.833
  N      320.909    -738.570    -244.330
  C      320.263    -737.411    -244.014
  O      319.994    -736.538    -244.827
  C      319.899    -737.258    -242.598
  C      320.214    -738.228    -241.738
  O      316.656    -739.413    -237.119
  O      316.289    -741.987    -237.272
  H      317.177    -738.799    -236.567
  H      324.083    -740.934    -239.582
  H      321.174    -738.693    -245.299
  H      319.385    -736.347    -242.304
  H      319.957    -738.131    -240.684
  H      321.449    -741.347    -241.745
  H      323.163    -739.270    -240.828
  H      321.552    -738.575    -239.138
  H      321.110    -741.564    -238.595
  H      319.978    -740.293    -236.922
  H      319.449    -739.045    -238.082
  P      323.317    -738.279    -237.331
  C      323.719    -739.680    -235.145
  O      324.157    -738.641    -236.013
  O      321.952    -737.653    -236.774
  O      324.032    -737.420    -238.330
  H      321.388    -738.316    -236.322
  H      324.564    -740.010    -234.548
  H      323.331    -740.530    -235.714
  H      322.933    -739.296    -234.489
  H      317.818    -740.788    -233.652
  H      316.507    -741.583    -234.488
  H      316.663    -739.844    -234.562

 3  4  5  6  7  8  9  10  11  12  13  24  28  29  30  31  32 0
 6-311+G(2d,p)
 ****
 33  34 0
 6-311+G(2d,p)
 ****
 1  2  14  15  16  17  18  19  20  21  22  23  25  26  27 0
 3-21G
 ****
 35  36  37  38  39  40  41  42  43  44  45 0
 3-21G
 ****


