%nproc=1
%NoSave
%Mem=1900MB
#P OB98/GEN NMR

erre ene a

0 1
  C      343.127    -299.064    -601.268
  O      342.324    -298.155    -601.984
  H      342.712    -300.070    -601.385
  H      343.141    -298.805    -600.204
  H      344.149    -299.055    -601.663
  P      342.708    -296.600    -601.854
  C      342.424    -296.085    -604.398
  O      343.314    -296.231    -603.300
  C      342.640    -297.218    -605.397
  O      342.247    -298.485    -604.831
  C      341.831    -297.087    -606.691
  O      342.375    -296.148    -607.604
  C      341.939    -298.509    -607.212
  O      343.262    -298.727    -607.751
  C      341.728    -299.313    -605.908
  N      340.327    -299.651    -605.668
  C      339.878    -300.885    -606.172
  O      340.646    -301.628    -606.784
  N      338.555    -301.236    -605.991
  C      337.762    -300.435    -605.352
  N      336.465    -300.838    -605.212
  C      338.187    -299.140    -604.796
  C      339.467    -298.819    -604.983
  O      344.011    -296.615    -600.921
  O      341.615    -295.694    -601.381
  H      343.363    -298.110    -608.505
  H      344.419    -295.712    -600.894
  H      337.484    -298.506    -604.275
  H      339.858    -297.872    -604.599
  H      342.319    -300.239    -605.920
  H      341.231    -298.729    -608.007
  H      340.782    -296.863    -606.477
  H      343.722    -297.274    -605.614
  H      336.188    -301.704    -605.658
  H      342.626    -295.115    -604.866
  H      335.732    -300.228    -604.864
  H      341.381    -296.102    -604.050
  P      341.664    -294.708    -607.684
  C      343.823    -293.344    -607.133
  O      342.508    -293.716    -606.730
  O      340.306    -294.922    -606.872
  O      341.416    -294.201    -609.070
  H      339.582    -294.377    -607.245
  H      344.248    -292.689    -606.402
  H      343.778    -292.843    -608.078
  H      344.430    -294.221    -607.222

 6  7  8  9  10  11  12  13  14  15  16  26  30  31  32  33  35 0
 6-311+G(2d,p)
 ****
 37  38 0
 6-311+G(2d,p)
 ****
 1  2  3  4  5  17  18  19  20  21  22  23  24  25 0
 3-21G
 ****
 27  28  29  34  36  39  40  41  42  43  44  45  46 0
 3-21G
 ****


