%nproc=1
%NoSave
%Mem=1900MB
#P OB98/GEN NMR

erre ene a

0 1
  C      635.608     568.586      41.485
  O      636.892     567.972      41.600
  P      638.130     568.976      41.790
  C      638.871     568.546      44.232
  O      638.180     569.406      43.342
  C      638.720     569.025      45.681
  O      639.482     570.255      45.896
  C      637.267     569.326      46.092
  O      637.140     568.962      47.473
  C      637.196     570.833      45.918
  O      636.081     571.427      46.573
  C      638.574     571.222      46.455
  N      638.664     576.068      48.065
  C      638.188     574.928      48.630
  N      638.200     573.672      48.136
  C      638.786     573.652      46.922
  C      639.318     574.727      46.218
  C      639.241     575.986      46.842
  N      639.704     577.142      46.266
  N      639.807     574.302      44.989
  C      639.508     573.013      44.936
  N      638.973     572.568      46.109
  O      637.650     570.309      41.038
  O      639.414     568.449      41.239
  H      636.117     572.398      46.466
  H      638.040     570.359      40.149
  H      637.741     575.046      49.610
  H      639.660     572.374      44.084
  H      638.628     571.135      47.548
  H      637.115     571.080      44.854
  H      636.527     568.775      45.500
  H      639.139     568.255      46.348
  H      639.930     568.508      43.977
  H      639.609     577.999      46.790
  H      640.130     577.124      45.350
  H      638.484     567.523      44.120
  P      636.167     567.753      47.863
  C      638.060     566.742      49.276
  O      637.154     566.530      48.204
  O      635.624     567.317      46.408
  O      635.084     568.061      48.849
  H      636.363     567.202      45.798
  H      638.612     565.815      49.446
  H      637.512     567.013      50.184
  H      638.765     567.531      49.013
  H      634.861     567.830      41.363
  H      635.599     569.237      40.636
  H      635.402     569.151      42.370

 3  4  5  6  7  8  9  10  11  12  22  25  29  30  31  32 0
 6-311+G(2d,p)
 ****
 33  36  37 0
 6-311+G(2d,p)
 ****
 1  2  13  14  15  16  17  18  19  20  21  23  24  26 0
 3-21G
 ****
 27  28  34  35  38  39  40  41  42  43  44  45  46  47  48 0
 3-21G
 ****


