%nproc=1
%NoSave
%Mem=1900MB
#P OB98/GEN NMR

erre ene a

0 1
  C     -293.168      51.888      43.407
  O     -291.834      52.373      43.416
  P     -290.648      51.291      43.437
  C     -289.731      49.615      45.197
  O     -290.813      50.438      44.787
  C     -290.174      48.633      46.285
  O     -291.480      48.097      45.933
  C     -289.228      47.439      46.492
  O     -289.255      47.126      47.892
  C     -289.906      46.354      45.670
  O     -289.468      45.042      45.978
  C     -291.369      46.656      45.973
  N     -292.769      42.265      43.757
  C     -291.864      42.537      44.724
  N     -291.550      43.732      45.269
  C     -292.293      44.711      44.726
  C     -293.239      44.589      43.720
  C     -293.472      43.296      43.228
  N     -294.390      43.023      42.233
  N     -293.776      45.820      43.398
  C     -293.164      46.673      44.196
  N     -292.275      46.047      45.029
  O     -289.351      52.182      43.721
  O     -290.511      50.480      42.184
  H     -289.914      44.394      45.390
  H     -288.584      51.863      43.208
  H     -291.317      41.684      45.111
  H     -293.314      47.745      44.200
  H     -291.657      46.324      46.979
  H     -289.686      46.525      44.609
  H     -288.194      47.645      46.192
  H     -290.290      49.190      47.226
  H     -288.932      50.241      45.606
  H     -294.338      42.104      41.815
  H     -294.751      43.811      41.710
  H     -289.331      49.081      44.328
  P     -287.964      46.442      48.558
  C     -287.167      44.010      48.780
  O     -288.200      44.869      48.332
  O     -288.311      46.602      50.114
  O     -286.647      47.008      48.151
  H     -289.207      46.275      50.315
  H     -287.498      42.976      48.655
  H     -286.957      44.192      49.838
  H     -286.267      44.166      48.182
  H     -293.848      52.714      43.393
  H     -293.340      51.300      44.284
  H     -293.322      51.285      42.537

 3  4  5  6  7  8  9  10  11  12  22  25  29  30  31  32 0
 6-311+G(2d,p)
 ****
 33  36  37 0
 6-311+G(2d,p)
 ****
 1  2  13  14  15  16  17  18  19  20  21  23  24  26 0
 3-21G
 ****
 27  28  34  35  38  39  40  41  42  43  44  45  46  47  48 0
 3-21G
 ****


