%nproc=1
%NoSave
%Mem=1900MB
#P OB98/GEN NMR

erre ene a

0 1
  C      -26.233       2.442      94.809
  O      -25.624       3.501      95.521
  H      -25.450       1.777      94.433
  H      -26.806       2.823      93.959
  H      -26.888       1.870      95.472
  P      -26.540       4.710      96.043
  C      -26.319       5.864      93.749
  O      -27.210       5.370      94.740
  C      -27.072       6.702      92.713
  O      -27.812       5.802      91.842
  C      -28.068       7.695      93.327
  O      -28.049       8.895      92.547
  C      -29.392       6.974      93.171
  O      -30.480       7.880      93.175
  C      -29.196       6.202      91.862
  N      -30.100       5.054      91.783
  C      -31.282       5.240      91.056
  O      -31.512       6.321      90.507
  N      -32.205       4.225      91.015
  C      -31.998       3.136      91.692
  N      -32.972       2.185      91.643
  C      -30.777       2.909      92.498
  C      -29.878       3.895      92.495
  O      -25.885       5.683      96.968
  O      -27.774       3.970      96.749
  H      -31.316       7.385      93.024
  H      -27.584       3.831      97.696
  H      -30.653       1.987      93.047
  H      -28.958       3.821      93.068
  H      -29.375       6.851      90.995
  H      -29.532       6.276      94.007
  H      -27.847       7.928      94.375
  H      -26.337       7.221      92.085
  H      -33.800       2.398      91.097
  H      -25.850       5.001      93.255
  H      -32.938       1.317      92.159
  H      -25.537       6.468      94.222
  P      -27.221      10.178      93.041
  C      -29.006      11.118      94.622
  O      -27.692      10.572      94.529
  O      -27.207      11.324      92.073
  O      -25.734       9.612      93.261
  H      -25.090      10.329      93.091
  H      -29.226      11.347      95.644
  H      -29.715      10.405      94.255
  H      -29.063      12.012      94.036

 6  7  8  9  10  11  12  13  14  15  16  26  30  31  32  33  35 0
 6-311+G(2d,p)
 ****
 37  38 0
 6-311+G(2d,p)
 ****
 1  2  3  4  5  17  18  19  20  21  22  23  24  25 0
 3-21G
 ****
 27  28  29  34  36  39  40  41  42  43  44  45  46 0
 3-21G
 ****


