%nproc=1
%NoSave
%Mem=1900MB
#P OB98/GEN NMR

erre ene a

0 1
  C      199.362     134.309    -198.641
  O      199.826     134.269    -199.992
  P      201.362     134.589    -200.308
  C      203.059     133.552    -201.964
  O      201.732     134.029    -201.764
  C      203.121     132.684    -203.225
  O      202.296     131.501    -203.096
  C      202.586     133.397    -204.460
  O      203.360     134.465    -204.966
  C      202.300     132.240    -205.402
  O      203.476     131.819    -206.091
  C      201.828     131.145    -204.415
  N      200.375     130.960    -204.430
  C      199.842     130.425    -205.598
  O      200.517     130.157    -206.589
  N      198.485     130.240    -205.603
  C      197.629     130.563    -204.591
  O      196.418     130.397    -204.656
  C      198.251     131.148    -203.391
  C      199.573     131.316    -203.366
  O      202.332     134.245    -199.228
  O      201.347     136.180    -200.552
  H      204.093     131.461    -205.425
  H      202.142     136.554    -200.126
  H      198.082     129.847    -206.437
  H      197.601     131.421    -202.570
  H      200.050     131.744    -202.490
  H      202.289     130.182    -204.662
  H      201.563     132.512    -206.165
  H      201.613     133.838    -204.199
  H      204.151     132.354    -203.368
  H      203.381     132.978    -201.093
  H      203.738     134.409    -202.036
  P      203.082     136.002    -204.598
  C      204.013     138.315    -205.305
  O      204.083     136.915    -205.455
  O      202.909     136.344    -203.157
  O      201.685     136.258    -205.354
  H      201.167     136.899    -204.834
  H      204.750     138.774    -205.972
  H      204.243     138.604    -204.278
  H      203.019     138.679    -205.583
  H      198.319     134.071    -198.615
  H      199.514     135.289    -198.240
  H      199.905     133.596    -198.056

 3  4  5  6  7  8  9  10  11  12  13  23  28  29  30  31  32 0
 6-311+G(2d,p)
 ****
 33  34 0
 6-311+G(2d,p)
 ****
 1  2  14  15  16  17  18  19  20  21  22  24  25  26  27 0
 3-21G
 ****
 35  36  37  38  39  40  41  42  43  44  45 0
 3-21G
 ****


