%nproc=1
%NoSave
%Mem=1900MB
#P OB98/GEN NMR

erre ene a

0 1
  C      -65.760      44.329     172.980
  O      -65.957      43.739     174.248
  H      -65.281      45.302     173.119
  H      -66.717      44.480     172.474
  H      -65.107      43.703     172.365
  P      -66.708      42.326     174.331
  C      -65.078      40.831     175.663
  O      -66.250      41.639     175.709
  C      -64.197      41.113     176.884
  O      -63.617      42.430     176.715
  C      -64.989      41.099     178.200
  O      -64.429      40.233     179.183
  C      -65.115      42.578     178.548
  O      -65.271      42.848     179.926
  C      -63.860      43.189     177.914
  N      -63.986      44.612     177.607
  C      -64.038      45.495     178.681
  O      -63.959      45.175     179.866
  N      -64.174      46.820     178.353
  C      -64.271      47.331     177.094
  O      -64.386      48.528     176.861
  C      -64.233      46.346     176.001
  C      -64.097      45.052     176.303
  O      -66.582      41.455     173.126
  O      -68.235      42.716     174.616
  H      -64.436      42.601     180.374
  H      -68.751      42.634     173.793
  H      -64.200      47.470     179.124
  H      -64.319      46.715     174.989
  H      -64.064      44.299     175.522
  H      -63.000      43.068     178.574
  H      -66.002      42.977     178.040
  H      -65.993      40.686     178.044
  H      -63.372      40.389     176.900
  H      -64.540      41.071     174.740
  H      -65.362      39.772     175.646
  P      -65.266      39.212     180.078
  C      -63.529      38.924     182.022
  O      -64.804      39.386     181.600
  O      -65.355      37.818     179.554
  O      -66.754      39.836     180.058
  H      -67.374      39.079     180.104
  H      -63.403      39.128     183.065
  H      -62.766      39.426     181.465
  H      -63.458      37.870     181.854

 6  7  8  9  10  11  12  13  14  15  16  26  31  32  33  34  35 0
 6-311+G(2d,p)
 ****
 36  37 0
 6-311+G(2d,p)
 ****
 1  2  3  4  5  17  18  19  20  21  22  23  24  25 0
 3-21G
 ****
 27  28  29  30  38  39  40  41  42  43  44  45 0
 3-21G
 ****


