%nproc=1
%NoSave
%Mem=1900MB
#P OB98/GEN NMR

erre ene a

0 1
  C      918.433    -721.544    -223.163
  O      918.485    -721.487    -221.730
  P      917.488    -720.489    -220.969
  C      916.256    -720.770    -218.689
  O      917.486    -720.850    -219.410
  C      916.117    -721.947    -217.720
  O      915.827    -723.179    -218.409
  C      917.380    -722.217    -216.911
  O      917.493    -721.359    -215.796
  C      917.147    -723.648    -216.457
  O      916.247    -723.659    -215.319
  C      916.445    -724.267    -217.682
  N      919.402    -728.421    -218.216
  C      918.641    -727.977    -217.181
  N      917.906    -726.852    -217.117
  C      917.969    -726.166    -218.260
  C      918.690    -726.491    -219.395
  C      919.431    -727.679    -219.353
  N      920.200    -728.125    -220.408
  N      918.521    -725.529    -220.379
  C      917.707    -724.644    -219.854
  N      917.346    -724.979    -218.573
  O      916.041    -720.961    -221.473
  O      917.716    -719.047    -221.290
  H      916.525    -722.919    -214.743
  H      915.451    -720.200    -221.544
  H      918.644    -728.597    -216.296
  H      917.335    -723.770    -220.342
  H      915.646    -724.975    -217.399
  H      918.057    -724.166    -216.136
  H      918.276    -722.177    -217.555
  H      915.295    -721.731    -217.034
  H      915.414    -720.766    -219.389
  H      920.685    -729.005    -220.314
  H      920.211    -727.587    -221.261
  H      916.226    -719.811    -218.151
  P      918.678    -720.268    -215.805
  C      918.588    -717.679    -215.785
  O      918.021    -718.897    -215.328
  O      918.967    -720.075    -217.368
  O      919.897    -720.698    -215.056
  H      919.923    -719.853    -217.500
  H      917.850    -716.877    -215.638
  H      918.844    -717.748    -216.854
  H      919.483    -717.449    -215.207
  H      919.154    -722.251    -223.518
  H      918.652    -720.578    -223.567
  H      917.454    -721.846    -223.473

 3  4  5  6  7  8  9  10  11  12  22  25  29  30  31  32 0
 6-311+G(2d,p)
 ****
 33  36  37 0
 6-311+G(2d,p)
 ****
 1  2  13  14  15  16  17  18  19  20  21  23  24  26 0
 3-21G
 ****
 27  28  34  35  38  39  40  41  42  43  44  45  46  47  48 0
 3-21G
 ****


