%nproc=1
%NoSave
%Mem=1900MB
#P OB98/GEN NMR

erre ene a

0 1
  C       14.334      82.244      52.059
  O       13.130      81.646      51.623
  H       15.052      81.452      52.289
  H       14.155      82.824      52.967
  H       14.755      82.883      51.280
  P       11.947      82.584      51.085
  C       11.311      81.050      49.109
  O       10.890      81.636      50.333
  C       10.456      79.824      48.773
  O       10.735      78.784      49.746
  C        8.948      80.098      48.796
  O        8.319      79.349      47.756
  C        8.516      79.563      50.148
  O        7.143      79.175      50.164
  C        9.484      78.398      50.351
  N        8.187      75.240      54.077
  C        7.878      75.205      52.732
  N        7.092      74.189      52.315
  N        8.300      76.092      51.868
  C        9.097      77.039      52.421
  C        9.477      77.184      53.731
  C        8.985      76.207      54.683
  O        9.211      76.196      55.890
  N       10.278      78.286      53.903
  C       10.380      78.808      52.694
  N        9.673      78.095      51.761
  O       12.396      83.771      50.290
  O       11.162      83.026      52.406
  H        6.998      78.680      50.999
  H       11.360      83.952      52.636
  H        7.824      74.539      54.701
  H       10.945      79.694      52.444
  H        9.136      77.476      49.870
  H        8.664      80.334      50.917
  H        6.751      73.458      52.922
  H        8.719      81.155      48.677
  H        6.873      74.123      51.328
  H       10.770      79.440      47.794
  H       12.359      80.752      49.214
  H       11.233      81.795      48.308
  P        8.296      79.949      46.269
  C        8.815      77.730      45.077
  O        7.874      78.782      45.247
  O        9.508      80.723      45.872
  O        6.994      80.888      46.284
  H        7.160      81.665      45.716
  H        8.430      77.016      44.379
  H        8.989      77.251      46.018
  H        9.735      78.131      44.706

 6  7  8  9  10  11  12  13  14  15  26  29  33  34 0
 6-311+G(2d,p)
 ****
 36  38  39  40  41 0
 6-311+G(2d,p)
 ****
 1  2  3  4  5  16  17  18  19  20  21  22  23  24  25 0
 3-21G
 ****
 27  28  30  31  32  35  37  42  43  44  45  46  47 0
 3-21G
 ****
 48  49 0
 3-21G
 ****


