%nproc=1
%NoSave
%Mem=1900MB
#P OB98/GEN NMR

erre ene a

0 1
  C     -173.437    -111.029    -894.340
  O     -174.126    -112.007    -895.100
  P     -173.584    -113.517    -895.030
  C     -175.326    -114.495    -893.360
  O     -174.859    -114.428    -894.700
  C     -176.575    -115.377    -893.270
  O     -177.716    -114.678    -893.820
  C     -176.469    -116.675    -894.060
  O     -175.689    -117.619    -893.340
  C     -177.941    -117.062    -894.190
  O     -178.381    -117.807    -893.040
  C     -178.646    -115.689    -894.270
  N     -179.166    -115.394    -895.590
  C     -180.517    -115.672    -895.800
  O     -181.202    -116.148    -894.880
  N     -181.062    -115.427    -897.040
  C     -180.315    -114.968    -897.990
  N     -180.894    -114.747    -899.200
  C     -178.868    -114.685    -897.820
  C     -178.361    -114.930    -896.610
  O     -172.757    -113.542    -893.650
  O     -172.757    -113.940    -896.190
  H     -179.317    -118.045    -893.220
  H     -172.058    -114.218    -893.670
  H     -178.283    -114.306    -898.650
  H     -177.311    -114.752    -896.410
  H     -179.489    -115.654    -893.560
  H     -178.119    -117.690    -895.060
  H     -176.047    -116.496    -895.050
  H     -176.777    -115.582    -892.210
  H     -181.885    -114.956    -899.280
  H     -175.590    -113.491    -893.010
  H     -180.409    -114.366    -900.000
  H     -174.532    -114.892    -892.720
  P     -174.543    -118.388    -894.160
  C     -172.901    -116.577    -893.380
  O     -173.170    -117.967    -893.450
  O     -174.476    -117.558    -895.530
  O     -174.744    -119.855    -894.390
  H     -173.878    -117.996    -896.160
  H     -172.032    -116.416    -892.730
  H     -173.749    -116.037    -892.950
  H     -172.675    -116.198    -894.380
  H     -173.902    -110.076    -894.480
  H     -172.418    -110.979    -894.663
  H     -173.470    -111.294    -893.304

 3  4  5  6  7  8  9  10  11  12  13  21  23  27  28  29  30  32 0
 6-311+G(2d,p)
 ****
 34  35 0
 6-311+G(2d,p)
 ****
 1  2  14  15  16  17  18  19  20  22  24  25  26 0
 3-21G
 ****
 31  33  36  37  38  39  40  41  42  43  44  45  46 0
 3-21G
 ****


