%nproc=1
%NoSave
%Mem=1900MB
#P OB98/GEN NMR

erre ene a

0 1
  C      404.242     845.325    -228.524
  O      405.033     844.299    -229.082
  H      404.670     845.616    -227.562
  H      403.223     844.954    -228.357
  H      404.212     846.200    -229.177
  P      404.921     843.996    -230.647
  C      404.563     841.442    -230.799
  O      405.482     842.525    -230.921
  C      405.259     840.079    -230.858
  O      405.881     839.914    -232.146
  C      406.376     839.955    -229.804
  O      405.940     839.498    -228.547
  C      407.300     838.945    -230.455
  O      406.925     837.593    -230.141
  C      407.120     839.208    -231.965
  N      409.947     840.262    -236.099
  C      408.983     839.267    -235.922
  N      408.801     838.444    -236.978
  N      408.311     839.110    -234.825
  C      408.688     839.946    -233.828
  C      409.626     840.953    -233.882
  C      410.315     841.176    -235.127
  O      411.160     842.046    -235.336
  N      409.755     841.572    -232.660
  C      408.968     840.882    -231.856
  N      408.225     839.945    -232.544
  O      406.058     844.927    -231.292
  O      403.584     844.299    -231.269
  H      406.114     837.386    -230.631
  H      405.788     845.221    -232.186
  H      410.414     840.352    -236.983
  H      408.857     841.057    -230.790
  H      407.033     838.262    -232.527
  H      408.329     839.069    -230.111
  H      409.360     838.462    -237.823
  H      406.910     840.898    -229.701
  H      408.249     837.586    -236.831
  H      404.512     839.287    -230.756
  H      403.863     841.534    -231.628
  H      403.988     841.534    -229.869
  P      406.236     840.327    -227.211
  C      407.866     838.679    -225.941
  O      406.593     839.307    -226.040
  O      404.798     840.888    -226.799
  O      407.240     841.423    -227.354
  H      404.681     841.798    -227.086
  H      407.882     838.039    -225.084
  H      408.626     839.426    -225.843
  H      408.047     838.100    -226.822

 6  7  8  9  10  11  12  13  14  15  26  29  33  34 0
 6-311+G(2d,p)
 ****
 36  38  39  40  41 0
 6-311+G(2d,p)
 ****
 1  2  3  4  5  16  17  18  19  20  21  22  23  24  25 0
 3-21G
 ****
 27  28  30  31  32  35  37  42  43  44  45  46  47 0
 3-21G
 ****
 48  49 0
 3-21G
 ****


