%nproc=1
%NoSave
%Mem=1900MB
#P OB98/GEN NMR

erre ene a

0 1
  C      -89.762     -93.464     -30.987
  O      -89.003     -92.358     -31.431
  H      -90.204     -93.953     -31.859
  H      -90.568     -93.134     -30.327
  H      -89.124     -94.184     -30.469
  P      -88.247     -91.461     -30.336
  C      -86.046     -92.820     -30.483
  O      -87.166     -92.461     -29.689
  C      -84.751     -92.523     -29.733
  O      -84.615     -91.111     -29.460
  C      -84.634     -93.188     -28.367
  O      -84.380     -94.581     -28.428
  C      -83.460     -92.412     -27.798
  O      -82.237     -92.876     -28.397
  C      -83.803     -90.977     -28.260
  N      -84.518     -90.213     -27.239
  C      -83.945     -88.997     -26.850
  O      -82.888     -88.613     -27.348
  N      -84.567     -88.252     -25.876
  C      -85.653     -88.696     -25.322
  N      -86.223     -87.922     -24.358
  C      -86.280     -89.981     -25.687
  C      -85.669     -90.678     -26.641
  O      -89.121     -90.742     -29.360
  O      -87.310     -90.487     -31.193
  H      -82.055     -93.757     -28.024
  H      -86.826     -89.902     -30.562
  H      -87.167     -90.318     -25.174
  H      -86.067     -91.636     -26.960
  H      -82.896     -90.430     -28.541
  H      -83.352     -92.523     -26.718
  H      -85.518     -92.979     -27.753
  H      -83.918     -92.804     -30.391
  H      -85.770     -87.047     -24.129
  H      -86.096     -92.256     -31.419
  H      -87.024     -88.223     -23.821
  H      -86.075     -93.890     -30.711
  P      -84.655     -95.431     -27.091
  C      -86.324     -97.001     -28.342
  O      -86.099     -96.098     -27.271
  O      -84.881     -94.300     -25.985
  O      -83.573     -96.394     -26.717
  H      -84.065     -94.154     -25.467
  H      -87.336     -97.347     -28.310
  H      -85.659     -97.834     -28.252
  H      -86.147     -96.502     -29.272

 6  7  8  9  10  11  12  13  14  15  16  26  30  31  32  33  35 0
 6-311+G(2d,p)
 ****
 37  38 0
 6-311+G(2d,p)
 ****
 1  2  3  4  5  17  18  19  20  21  22  23  24  25 0
 3-21G
 ****
 27  28  29  34  36  39  40  41  42  43  44  45  46 0
 3-21G
 ****


