%nproc=1
%NoSave
%Mem=1900MB
#P OB98/GEN NMR

erre ene a

0 1
  C      -31.018     316.599     548.209
  O      -31.263     317.645     547.292
  H      -30.683     317.033     549.154
  H      -30.228     315.948     547.826
  H      -31.925     316.016     548.394
  P      -32.029     317.317     545.924
  C      -30.099     317.934     544.323
  O      -30.895     316.892     544.872
  C      -29.671     317.574     542.899
  O      -30.822     316.992     542.210
  C      -29.199     318.792     542.075
  O      -28.165     318.363     541.184
  C      -30.452     319.131     541.292
  O      -30.170     319.906     540.156
  C      -30.997     317.736     540.990
  N      -32.389     317.788     540.563
  C      -32.628     317.878     539.194
  O      -31.734     317.928     538.352
  N      -33.939     317.987     538.821
  C      -35.001     318.124     539.667
  O      -36.147     318.300     539.274
  C      -34.685     318.076     541.106
  C      -33.417     317.905     541.484
  O      -32.971     318.367     545.434
  O      -32.766     315.924     546.205
  H      -29.442     319.502     539.647
  H      -33.506     315.798     545.583
  H      -34.126     318.045     537.832
  H      -35.505     318.195     541.801
  H      -33.146     317.881     542.529
  H      -30.402     317.243     540.211
  H      -31.145     319.697     541.922
  H      -28.842     319.615     542.696
  H      -28.899     316.800     542.943
  H      -29.219     318.061     544.957
  H      -30.673     318.868     544.321
  P      -26.648     318.169     541.677
  C      -25.826     320.597     541.469
  O      -26.104     319.520     542.359
  O      -25.732     317.608     540.639
  O      -26.763     317.153     542.907
  H      -26.076     316.465     542.821
  H      -25.473     321.439     542.027
  H      -26.719     320.866     540.945
  H      -25.077     320.295     540.767

 6  7  8  9  10  11  12  13  14  15  16  26  31  32  33  34  35 0
 6-311+G(2d,p)
 ****
 36  37 0
 6-311+G(2d,p)
 ****
 1  2  3  4  5  17  18  19  20  21  22  23  24  25 0
 3-21G
 ****
 27  28  29  30  38  39  40  41  42  43  44  45 0
 3-21G
 ****


