%nproc=1
%NoSave
%Mem=1900MB
#P OB98/GEN NMR

erre ene a

0 1
  C     2057.724    -896.850     283.334
  O     2057.585    -897.960     284.243
  P     2058.873    -898.310     285.126
  C     2057.896    -897.760     287.474
  O     2058.808    -897.400     286.439
  C     2056.695    -896.790     287.469
  O     2055.900    -896.890     286.286
  C     2055.729    -897.040     288.652
  O     2056.249    -896.460     289.829
  C     2054.467    -896.340     288.120
  O     2054.500    -894.930     288.401
  C     2054.531    -896.600     286.637
  N     2049.835    -897.890     285.172
  C     2050.299    -896.700     285.746
  N     2049.376    -895.730     285.895
  N     2051.540    -896.520     286.087
  C     2052.335    -897.570     285.848
  C     2051.995    -898.800     285.273
  C     2050.618    -898.980     284.880
  O     2050.168    -900.000     284.376
  N     2053.104    -899.590     285.140
  C     2054.065    -898.950     285.751
  N     2053.681    -897.680     286.139
  O     2060.081    -897.700     284.276
  O     2059.033    -899.770     285.380
  H     2054.497    -894.800     289.357
  H     2060.624    -898.440     283.908
  H     2048.858    -897.980     284.931
  H     2055.062    -899.330     285.910
  H     2054.238    -895.720     286.060
  H     2053.580    -896.740     288.629
  H     2048.416    -895.800     285.675
  H     2055.548    -898.110     288.771
  H     2049.706    -894.840     286.319
  H     2057.094    -895.790     287.534
  H     2058.378    -897.730     288.455
  H     2057.562    -898.790     287.294
  P     2056.526    -897.420     291.074
  C     2058.934    -896.850     291.846
  O     2058.103    -897.720     291.137
  O     2055.864    -898.800     290.612
  O     2055.919    -896.960     292.379
  H     2055.347    -899.180     291.338
  H     2059.781    -897.400     292.209
  H     2058.405    -896.390     292.705
  H     2059.283    -896.060     291.158
  H     2056.807    -896.709     282.800
  H     2058.513    -897.054     282.640
  H     2057.955    -895.963     283.887

 3  4  5  6  7  8  9  10  11  12  23  26  30  31 0
 6-311+G(2d,p)
 ****
 33  35  36  37  38 0
 6-311+G(2d,p)
 ****
 1  2  13  14  15  16  17  18  19  20  21  22  24  25 0
 3-21G
 ****
 27  28  29  32  34  39  40  41  42  43  44  45  46  47  48  49 0
 3-21G
 ****


