%nproc=1
%NoSave
%Mem=1900MB
#P OB98/GEN NMR

erre ene a

0 1
  C     -111.880     184.621     273.798
  O     -110.593     184.294     274.285
  H     -112.543     183.769     273.959
  H     -111.834     184.837     272.727
  H     -112.280     185.486     274.335
  P     -109.469     185.431     274.162
  C     -107.619     184.775     272.456
  O     -108.903     185.348     272.663
  C     -107.751     183.264     272.286
  O     -108.878     182.966     271.430
  C     -106.550     182.612     271.618
  O     -105.467     182.430     272.512
  C     -107.158     181.307     271.130
  O     -107.190     180.322     272.170
  C     -108.584     181.725     270.748
  N     -108.341     179.327     266.248
  C     -108.220     178.878     267.518
  N     -108.311     179.582     268.667
  C     -108.583     180.873     268.410
  C     -108.737     181.473     267.171
  C     -108.608     180.638     266.050
  N     -108.707     181.096     264.758
  N     -108.967     182.825     267.315
  C     -108.962     183.039     268.614
  N     -108.737     181.889     269.316
  O     -108.271     184.851     275.053
  O     -109.888     186.790     274.611
  H     -107.532     179.503     271.759
  H     -108.280     185.280     275.928
  H     -108.014     177.818     267.624
  H     -109.107     184.002     269.091
  H     -109.332     180.992     271.073
  H     -106.584     180.896     270.301
  H     -106.236     183.201     270.748
  H     -107.945     182.817     273.270
  H     -106.983     184.987     273.323
  H     -107.168     185.225     271.565
  H     -108.535     180.456     264.001
  H     -108.790     182.093     264.596
  P     -103.996     182.309     271.887
  C     -102.998     179.914     272.142
  O     -103.813     180.799     271.385
  O     -103.030     182.408     273.158
  O     -103.673     183.343     270.862
  H     -102.213     182.887     272.919
  H     -102.983     178.953     271.672
  H     -103.396     179.821     273.131
  H     -102.002     180.302     272.193

 6  7  8  9  10  11  12  13  14  15  25  28  32  33  34  35 0
 6-311+G(2d,p)
 ****
 36  37  40 0
 6-311+G(2d,p)
 ****
 1  2  3  4  5  16  17  18  19  20  21  22  23  24 0
 3-21G
 ****
 26  27  29  30  31  38  39 41  42  43  44  45  46  47  48 0
 3-21G
 ****


