%nproc=1
%NoSave
%Mem=1900MB
#P OB98/GEN NMR

erre ene a

0 1
  C     -323.973     136.150    1154.804
  O     -325.155     136.698    1155.350
  P     -326.276     135.748    1155.993
  C     -327.868     135.890    1158.009
  O     -326.724     136.443    1157.361
  C     -328.290     136.776    1159.184
  O     -327.241     136.819    1160.203
  C     -328.518     138.234    1158.827
  O     -329.613     138.521    1157.971
  C     -328.513     138.883    1160.194
  O     -329.788     138.738    1160.843
  C     -327.434     138.057    1160.926
  N     -326.174     138.804    1161.077
  C     -325.060     138.046    1161.379
  O     -325.070     136.808    1161.505
  N     -323.886     138.734    1161.550
  C     -323.751     140.101    1161.501
  O     -322.698     140.670    1161.719
  C     -324.991     140.855    1161.208
  C     -326.125     140.183    1161.003
  O     -325.898     134.311    1156.114
  O     -327.546     136.008    1155.047
  H     -330.447     139.224    1160.303
  H     -327.856     136.926    1155.025
  H     -323.053     138.203    1161.778
  H     -324.904     141.930    1161.145
  H     -327.041     140.705    1160.785
  H     -327.789     137.791    1161.933
  H     -328.314     139.963    1160.135
  H     -327.638     138.603    1158.300
  H     -329.170     136.321    1159.657
  H     -327.613     134.888    1158.391
  H     -328.687     135.786    1157.290
  P     -329.885     139.967    1157.350
  C     -331.495     140.994    1155.580
  O     -331.178     139.883    1156.396
  O     -328.683     140.705    1156.831
  O     -330.480     140.765    1158.616
  H     -330.226     141.695    1158.546
  H     -332.416     140.767    1155.039
  H     -330.699     141.177    1154.841
  H     -331.653     141.888    1156.195
  H     -323.355     136.938    1154.427
  H     -324.225     135.482    1154.007
  H     -323.444     135.615    1155.564

 3  4  5  6  7  8  9  10  11  12  13  23  28  29  30  31  32 0
 6-311+G(2d,p)
 ****
 33  34 0
 6-311+G(2d,p)
 ****
 1  2  14  15  16  17  18  19  20  21  22  24  25  26  27 0
 3-21G
 ****
 35  36  37  38  39  40  41  42  43  44  45 0
 3-21G
 ****


