%nproc=1
%NoSave
%Mem=1900MB
#P OB98/GEN NMR

erre ene a

0 1
  C      -22.915      84.832     -77.559
  O      -22.655      85.752     -78.621
  P      -23.868      86.594     -79.243
  C      -24.112      88.371     -77.391
  O      -23.758      88.115     -78.741
  C      -23.834      89.837     -77.016
  O      -22.405      90.092     -77.062
  C      -24.524      90.835     -77.955
  O      -25.276      91.831     -77.260
  C      -23.389      91.347     -78.825
  O      -23.655      92.621     -79.392
  C      -22.176      91.247     -77.891
  N      -20.917      91.155     -78.636
  C      -20.443      92.329     -79.207
  O      -21.064      93.391     -79.175
  N      -19.252      92.234     -79.876
  C      -18.548      91.087     -80.092
  O      -17.509      91.046     -80.739
  C      -19.131      89.863     -79.519
  C      -20.270      89.953     -78.829
  O      -25.221      85.980     -79.107
  O      -23.457      86.717     -80.792
  H      -23.861      93.247     -78.664
  H      -24.271      86.631     -81.326
  H      -18.886      93.082     -80.281
  H      -18.611      88.932     -79.689
  H      -20.727      89.069     -78.408
  H      -22.107      92.127     -77.243
  H      -23.250      90.646     -79.658
  H      -25.268      90.339     -78.589
  H      -24.178      89.979     -75.987
  H      -23.531      87.723     -76.733
  H      -25.162      88.104     -77.233
  P      -26.547      92.592     -77.863
  C      -28.721      91.542     -76.922
  O      -27.725      92.536     -76.783
  O      -26.943      92.201     -79.247
  O      -26.092      94.130     -77.834
  H      -26.401      94.571     -78.647
  H      -29.608      91.856     -76.366
  H      -28.357      90.600     -76.500
  H      -28.993      91.395     -77.970
  H      -22.001      84.359     -77.265
  H      -23.610      84.090     -77.892
  H      -23.328      85.358     -76.724

 3  4  5  6  7  8  9  10  11  12  13  23  28  29  30  31  32 0
 6-311+G(2d,p)
 ****
 33  34 0
 6-311+G(2d,p)
 ****
 1  2  14  15  16  17  18  19  20  21  22  24  25  26  27 0
 3-21G
 ****
 35  36  37  38  39  40  41  42  43  44  45 0
 3-21G
 ****


