%nproc=1
%NoSave
%Mem=1900MB
#P OB98/GEN NMR

erre ene a

0 1
  C      523.054    -111.301    -268.080
  O      522.180    -112.365    -267.764
  H      522.963    -110.500    -267.340
  H      524.079    -111.682    -268.065
  H      522.838    -110.912    -269.078
  P      520.621    -111.992    -267.628
  C      521.071    -111.122    -265.229
  O      520.299    -111.971    -266.060
  C      520.534    -111.144    -263.793
  O      519.236    -110.527    -263.739
  C      520.338    -112.542    -263.218
  O      521.586    -113.115    -262.785
  C      519.419    -112.237    -262.051
  O      520.198    -111.750    -260.929
  C      518.532    -111.127    -262.612
  N      513.455    -110.379    -262.336
  C      514.496    -109.726    -261.755
  N      515.812    -109.993    -261.869
  C      516.028    -111.031    -262.685
  C      515.076    -111.786    -263.338
  C      513.727    -111.424    -263.140
  N      512.658    -112.097    -263.703
  N      515.660    -112.766    -264.114
  C      516.954    -112.614    -263.919
  N      517.231    -111.580    -263.068
  O      519.878    -113.303    -268.151
  O      520.196    -110.782    -268.387
  H      519.615    -111.762    -260.154
  H      519.064    -113.041    -268.634
  H      514.236    -108.895    -261.117
  H      517.725    -113.219    -264.394
  H      518.381    -110.316    -261.880
  H      518.870    -113.107    -261.689
  H      519.823    -113.220    -263.940
  H      521.219    -110.550    -263.173
  H      521.024    -110.090    -265.614
  H      511.747    -111.682    -263.685
  H      512.874    -112.874    -264.328
  H      522.118    -111.449    -265.254
  P      521.788    -114.698    -262.981
  C      520.579    -115.169    -260.733
  O      521.762    -115.330    -261.495
  O      523.312    -114.795    -263.421
  O      520.873    -115.343    -263.973
  H      523.463    -115.634    -263.941
  H      520.704    -115.634    -259.778
  H      519.759    -115.625    -261.247
  H      520.380    -114.126    -260.599

 6  7  8  9  10  11  12  13  14  15  25  28  32  33  34  35 0
 6-311+G(2d,p)
 ****
 36  39  40 0
 6-311+G(2d,p)
 ****
 1  2  3  4  5  16  17  18  19  20  21  22  23  24 0
 3-21G
 ****
 26  27  29  30  31  37  38  41  42  43  44  45  46  47  48 0
 3-21G
 ****


