%nproc=1
%NoSave
%Mem=1900MB
#P OB98/GEN NMR

erre ene a

0 1
  C     -136.869     145.847       7.115
  O     -137.304     146.214       5.824
  H     -137.593     145.147       7.541
  H     -136.805     146.725       7.767
  H     -135.896     145.350       7.060
  P     -136.470     147.330       5.026
  C     -136.247     149.901       5.294
  O     -136.924     148.719       5.700
  C     -136.437     151.002       6.335
  O     -135.615     150.764       7.497
  C     -136.045     152.401       5.866
  O     -136.982     152.977       4.969
  C     -136.001     153.126       7.202
  O     -137.342     153.395       7.649
  C     -135.324     152.058       8.098
  N     -133.879     152.252       8.222
  C     -133.443     153.133       9.223
  O     -134.260     153.704       9.948
  N     -132.099     153.375       9.353
  C     -131.258     152.800       8.545
  N     -129.940     153.116       8.690
  C     -131.669     151.856       7.491
  C     -132.977     151.632       7.383
  O     -136.559     147.285       3.536
  O     -134.973     147.180       5.579
  H     -137.769     153.930       6.954
  H     -134.413     147.843       5.106
  H     -130.930     151.417       6.842
  H     -133.359     150.959       6.619
  H     -135.769     152.055       9.101
  H     -135.473     154.083       7.157
  H     -135.039     152.402       5.433
  H     -137.485     150.966       6.667
  H     -129.700     153.800       9.397
  H     -136.645     150.205       4.322
  H     -129.273     152.939       7.945
  H     -135.174     149.703       5.193
  P     -136.422     153.977       3.840
  C     -135.310     156.336       3.893
  O     -136.075     155.358       4.581
  O     -137.733     154.323       2.994
  O     -135.313     153.442       2.990
  H     -137.818     153.733       2.217
  H     -135.170     157.189       4.524
  H     -135.826     156.632       3.004
  H     -134.357     155.925       3.633

 6  7  8  9  10  11  12  13  14  15  16  26  30  31  32  33  35 0
 6-311+G(2d,p)
 ****
 37  38 0
 6-311+G(2d,p)
 ****
 1  2  3  4  5  17  18  19  20  21  22  23  24  25 0
 3-21G
 ****
 27  28  29  34  36  39  40  41  42  43  44  45  46 0
 3-21G
 ****


