%nproc=1
%NoSave
%Mem=1900MB
#P OB98/GEN NMR

erre ene a

0 1
  C      336.100     462.524    -327.217
  O      336.339     463.726    -326.482
  P      337.632     463.787    -325.532
  C      338.851     465.874    -326.497
  O      338.096     465.317    -325.423
  C      339.141     467.354    -326.232
  O      337.943     468.160    -326.309
  C      339.732     467.626    -324.850
  O      341.141     467.403    -324.829
  C      339.446     469.108    -324.690
  O      340.425     469.881    -325.414
  C      338.067     469.240    -325.346
  N      335.561     471.763    -321.741
  C      336.635     472.155    -322.520
  N      337.094     473.411    -322.326
  N      337.197     471.399    -323.426
  C      336.611     470.171    -323.527
  C      335.545     469.670    -322.808
  C      334.953     470.521    -321.801
  O      334.007     470.217    -321.067
  N      335.247     468.389    -323.197
  C      336.116     468.121    -324.157
  N      336.972     469.167    -324.393
  O      338.767     463.131    -326.446
  O      337.473     463.065    -324.234
  H      341.294     469.640    -325.046
  H      339.450     462.715    -325.880
  H      335.173     472.388    -321.058
  H      336.147     467.190    -324.727
  H      337.951     470.188    -325.900
  H      339.498     469.435    -323.653
  H      336.681     474.072    -321.684
  H      339.218     467.055    -324.069
  H      337.861     473.730    -322.911
  H      339.848     467.714    -327.000
  H      338.311     465.769    -327.436
  H      339.775     465.298    -326.619
  P      341.727     466.394    -323.723
  C      343.156     465.109    -325.467
  O      343.140     465.888    -324.293
  O      340.764     465.115    -323.875
  O      341.725     466.920    -322.326
  H      340.676     464.663    -323.012
  H      344.200     465.000    -325.802
  H      342.589     465.599    -326.275
  H      342.742     464.114    -325.275
  H      335.210     462.634    -327.800
  H      335.982     461.707    -326.536
  H      336.929     462.331    -327.865

 3  4  5  6  7  8  9  10  11  12  23  26  30  31 0
 6-311+G(2d,p)
 ****
 33  35  36  37  38 0
 6-311+G(2d,p)
 ****
 1  2  13  14  15  16  17  18  19  20  21  22  24  25 0
 3-21G
 ****
 27  28  29  32  34  39  40  41  42  43  44  45  46  47  48  49 0
 3-21G
 ****


