%nproc=1
%NoSave
%Mem=1900MB
#P OB98/GEN NMR

erre ene a

0 1
  C       86.161    -293.032      32.743
  O       84.908    -292.391      32.878
  H       85.998    -294.113      32.743
  H       86.803    -292.778      33.588
  H       86.643    -292.751      31.804
  P       84.838    -290.794      32.767
  C       85.645    -290.066      35.107
  O       85.976    -290.199      33.732
  C       85.857    -288.623      35.578
  O       87.278    -288.329      35.547
  C       85.145    -287.582      34.711
  O       84.658    -286.532      35.545
  C       86.249    -287.055      33.814
  O       85.989    -285.729      33.357
  C       87.471    -287.161      34.723
  N       90.620    -284.702      31.629
  C       89.499    -284.255      32.300
  N       89.152    -282.964      32.104
  N       88.779    -285.006      33.091
  C       89.256    -286.271      33.210
  C       90.352    -286.833      32.599
  C       91.126    -285.995      31.709
  O       92.120    -286.342      31.076
  N       90.498    -288.151      32.958
  C       89.492    -288.381      33.781
  N       88.702    -287.275      33.958
  O       83.478    -290.207      32.973
  O       85.399    -290.475      31.305
  H       85.947    -285.156      34.152
  H       84.677    -290.231      30.699
  H       91.131    -284.085      31.023
  H       89.288    -289.324      34.270
  H       87.582    -286.290      35.377
  H       86.354    -287.706      32.935
  H       89.676    -282.322      31.529
  H       84.320    -288.012      34.143
  H       88.353    -282.602      32.608
  H       85.539    -288.549      36.624
  H       86.291    -290.737      35.682
  H       84.602    -290.360      35.259
  P       83.233    -285.871      35.215
  C       84.204    -284.992      33.004
  O       83.115    -285.661      33.626
  O       82.873    -284.678      36.036
  O       82.212    -287.080      35.484
  H       81.378    -286.716      35.844
  H       84.018    -284.909      31.954
  H       85.103    -285.549      33.164
  H       84.310    -284.014      33.426

 6  7  8  9  10  11  12  13  14  15  26  29  33  34 0
 6-311+G(2d,p)
 ****
 36  38  39  40  41 0
 6-311+G(2d,p)
 ****
 1  2  3  4  5  16  17  18  19  20  21  22  23  24  25 0
 3-21G
 ****
 27  28  30  31  32  35  37  42  43  44  45  46  47 0
 3-21G
 ****
 48  49 0
 3-21G
 ****


