%nproc=1
%NoSave
%Mem=1900MB
#P OB98/GEN NMR

erre ene a

0 1
  C     -254.768      68.536     143.281
  O     -255.630      67.573     143.854
  H     -254.167      68.986     144.076
  H     -255.352      69.323     142.799
  H     -254.094      68.074     142.553
  P     -256.476      66.619     142.884
  C     -258.315      66.945     141.103
  O     -257.548      67.549     142.134
  C     -258.559      67.947     139.975
  O     -257.313      68.561     139.578
  C     -259.138      67.332     138.708
  O     -260.517      67.051     138.866
  C     -258.814      68.414     137.691
  O     -259.772      69.487     137.767
  C     -257.422      68.885     138.176
  N     -256.321      68.295     137.413
  C     -255.705      69.117     136.477
  O     -256.067      70.271     136.255
  N     -254.652      68.558     135.788
  C     -254.232      67.266     135.887
  O     -253.322      66.797     135.207
  C     -254.946      66.428     136.866
  C     -255.939      66.975     137.575
  O     -257.047      65.390     143.512
  O     -255.439      66.253     141.717
  H     -259.532      70.123     137.064
  H     -255.071      65.363     141.870
  H     -254.203      69.137     135.100
  H     -254.638      65.395     136.969
  H     -256.479      66.374     138.300
  H     -257.340      69.977     138.101
  H     -258.830      68.050     136.665
  H     -258.582      66.422     138.438
  H     -259.213      68.738     140.361
  H     -259.279      66.626     141.523
  H     -257.777      66.064     140.732
  P     -261.398      66.556     137.625
  C     -262.610      67.622     135.633
  O     -261.694      67.837     136.700
  O     -262.608      65.754     137.980
  O     -260.377      65.697     136.738
  H     -260.575      64.748     136.835
  H     -262.736      68.531     135.083
  H     -263.554      67.312     136.030
  H     -262.229      66.862     134.984

 6  7  8  9  10  11  12  13  14  15  16  26  31  32  33  34  35 0
 6-311+G(2d,p)
 ****
 36  37 0
 6-311+G(2d,p)
 ****
 1  2  3  4  5  17  18  19  20  21  22  23  24  25 0
 3-21G
 ****
 27  28  29  30  38  39  40  41  42  43  44  45 0
 3-21G
 ****


