%nproc=1
%NoSave
%Mem=1900MB
#P OB98/GEN NMR

erre ene a

0 1
  C      359.860    -272.163      42.614
  O      358.470    -272.418      42.624
  H      360.195    -272.020      43.644
  H      360.074    -271.252      42.049
  H      360.407    -273.006      42.182
  P      357.749    -272.816      41.248
  C      357.808    -275.390      41.408
  O      357.010    -274.216      41.497
  C      356.911    -276.626      41.423
  O      356.493    -276.926      42.774
  C      355.628    -276.465      40.618
  O      355.875    -276.574      39.232
  C      354.781    -277.585      41.205
  O      355.125    -278.849      40.617
  C      355.185    -277.538      42.694
  N      354.217    -276.824      43.525
  C      354.255    -277.096      44.890
  O      355.026    -277.907      45.397
  N      353.346    -276.414      45.658
  C      352.355    -275.599      45.192
  O      351.510    -275.084      45.915
  C      352.348    -275.370      43.740
  C      353.265    -275.982      42.986
  O      358.606    -272.762      40.028
  O      356.528    -271.781      41.150
  H      354.885    -278.787      39.672
  H      356.738    -271.097      40.487
  H      353.351    -276.609      46.648
  H      351.587    -274.719      43.335
  H      353.270    -275.831      41.914
  H      355.294    -278.556      43.091
  H      353.716    -277.431      41.032
  H      355.154    -275.505      40.854
  H      357.497    -277.481      41.054
  H      358.484    -275.422      42.267
  H      358.399    -275.350      40.488
  P      355.530    -275.351      38.260
  C      357.057    -273.348      38.771
  O      356.883    -274.533      37.997
  O      354.359    -274.520      38.669
  O      355.257    -276.054      36.847
  H      354.344    -275.866      36.560
  H      357.988    -272.887      38.514
  H      357.059    -273.598      39.811
  H      356.255    -272.669      38.569

 6  7  8  9  10  11  12  13  14  15  16  26  31  32  33  34  35 0
 6-311+G(2d,p)
 ****
 36  37 0
 6-311+G(2d,p)
 ****
 1  2  3  4  5  17  18  19  20  21  22  23  24  25 0
 3-21G
 ****
 27  28  29  30  38  39  40  41  42  43  44  45 0
 3-21G
 ****


