%nproc=1
%NoSave
%Mem=1900MB
#P OB98/GEN NMR

erre ene a

0 1
  C       21.971    -283.529      84.183
  O       21.207    -282.915      85.202
  H       21.996    -282.865      83.315
  H       21.508    -284.474      83.890
  H       22.994    -283.703      84.526
  P       21.115    -283.689      86.605
  C       21.339    -282.816      89.037
  O       20.856    -282.565      87.725
  C       21.142    -281.589      89.928
  O       22.145    -280.585      89.578
  C       19.764    -280.925      89.796
  O       19.390    -280.418      91.085
  C       20.044    -279.740      88.885
  O       19.063    -278.713      89.004
  C       21.437    -279.348      89.377
  N       23.948    -275.008      88.944
  C       23.415    -275.629      90.056
  N       23.574    -274.997      91.242
  N       22.779    -276.768      90.013
  C       22.724    -277.307      88.770
  C       23.206    -276.793      87.588
  C       23.882    -275.509      87.647
  O       24.357    -274.902      86.693
  N       22.922    -277.625      86.536
  C       22.273    -278.638      87.078
  N       22.128    -278.490      88.429
  O       22.633    -284.130      86.860
  O       20.182    -284.853      86.638
  H       19.343    -277.961      88.437
  H       22.783    -285.033      86.522
  H       24.415    -274.123      89.029
  H       21.888    -279.495      86.542
  H       21.406    -278.809      90.331
  H       20.073    -280.067      87.839
  H       24.092    -274.140      91.359
  H       18.978    -281.588      89.415
  H       23.226    -275.456      92.075
  H       21.338    -281.879      90.969
  H       22.407    -283.052      88.984
  H       20.808    -283.675      89.460
  P       18.152    -281.110      91.836
  C       17.108    -280.810      94.199
  O       17.763    -280.201      93.095
  O       18.822    -282.396      92.519
  O       17.020    -281.489      90.934
  H       18.155    -283.100      92.624
  H       16.918    -280.074      94.952
  H       17.731    -281.581      94.603
  H       16.181    -281.235      93.874

 6  7  8  9  10  11  12  13  14  15  26  29  33  34 0
 6-311+G(2d,p)
 ****
 36  38  39  40  41 0
 6-311+G(2d,p)
 ****
 1  2  3  4  5  16  17  18  19  20  21  22  23  24  25 0
 3-21G
 ****
 27  28  30  31  32  35  37  42  43  44  45  46  47 0
 3-21G
 ****
 48  49 0
 3-21G
 ****


