%nproc=1
%NoSave
%Mem=1900MB
#P OB98/GEN NMR

erre ene a

0 1
  C       44.712     -51.334     -26.817
  O       44.684     -52.575     -26.141
  H       44.208     -51.419     -27.783
  H       44.186     -50.591     -26.211
  H       45.744     -51.005     -26.962
  P       45.414     -53.809     -26.861
  C       45.265     -54.828     -29.246
  O       44.650     -54.013     -28.257
  C       44.269     -55.116     -30.364
  O       43.152     -55.877     -29.854
  C       43.663     -53.870     -31.000
  O       44.522     -53.288     -31.965
  C       42.426     -54.463     -31.651
  O       42.796     -55.150     -32.861
  C       41.965     -55.468     -30.587
  N       36.996     -54.571     -29.763
  C       37.652     -55.116     -30.808
  N       38.978     -55.315     -30.953
  C       39.643     -54.886     -29.870
  C       39.112     -54.303     -28.732
  C       37.715     -54.154     -28.697
  N       37.043     -53.584     -27.637
  N       40.114     -53.960     -27.845
  C       41.226     -54.362     -28.426
  N       40.996     -54.919     -29.655
  O       44.946     -55.076     -26.002
  O       46.898     -53.709     -26.970
  H       43.190     -56.001     -32.589
  H       45.564     -55.818     -26.136
  H       37.029     -55.432     -31.641
  H       42.217     -54.273     -28.000
  H       41.522     -56.370     -31.024
  H       41.683     -53.712     -31.923
  H       43.354     -53.139     -30.242
  H       44.775     -55.732     -31.119
  H       45.579     -55.771     -28.790
  H       36.072     -53.357     -27.789
  H       37.583     -53.137     -26.911
  H       46.144     -54.312     -29.642
  P       44.925     -51.748     -31.760
  C       43.597     -49.514     -31.672
  O       43.569     -50.913     -31.936
  O       45.750     -51.408     -33.085
  O       45.704     -51.467     -30.517
  H       46.382     -50.682     -32.925
  H       42.623     -49.101     -31.833
  H       44.298     -49.041     -32.328
  H       43.891     -49.348     -30.657

 6  7  8  9  10  11  12  13  14  15  25  28  32  33  34  35 0
 6-311+G(2d,p)
 ****
 36  39  40 0
 6-311+G(2d,p)
 ****
 1  2  3  4  5  16  17  18  19  20  21  22  23  24 0
 3-21G
 ****
 26  27  29  30  31  37  38  41  42  43  44  45  46  47 0
 3-21G
 ****
 48 0
 3-21G
 ****


