%nproc=1
%NoSave
%Mem=1900MB
#P OB98/GEN NMR

erre ene a

0 1
  C     -268.236     334.656     763.905
  O     -267.389     333.537     763.656
  P     -267.639     332.058     764.208
  C     -267.328     330.904     761.869
  O     -266.907     331.028     763.233
  C     -266.435     329.946     761.064
  O     -265.092     330.482     760.987
  C     -266.324     328.591     761.754
  O     -267.341     327.617     761.584
  C     -264.915     328.087     761.423
  O     -264.907     327.240     760.269
  C     -264.148     329.383     761.151
  N     -259.440     328.644     762.984
  C     -260.056     328.030     761.919
  N     -259.354     327.070     761.282
  N     -261.268     328.332     761.524
  C     -261.882     329.249     762.304
  C     -261.395     329.901     763.401
  C     -260.032     329.613     763.800
  O     -259.428     330.128     764.758
  N     -262.312     330.759     763.945
  C     -263.385     330.595     763.195
  N     -263.183     329.696     762.175
  O     -269.060     331.746     764.599
  O     -266.741     332.015     765.555
  H     -265.464     327.641     759.594
  H     -267.216     331.423     766.183
  H     -258.490     328.388     763.252
  H     -264.334     331.115     763.345
  H     -263.594     329.314     760.185
  H     -264.509     327.510     762.248
  H     -258.474     326.717     761.620
  H     -266.323     328.789     762.842
  H     -259.895     326.472     760.630
  H     -266.793     329.877     760.009
  H     -267.294     331.907     761.448
  H     -268.370     330.570     761.820
  P     -268.017     326.722     762.737
  C     -270.445     327.462     762.354
  O     -269.531     326.390     762.283
  O     -268.233     327.759     763.942
  O     -267.202     325.533     763.176
  H     -268.390     327.275     764.784
  H     -271.462     327.067     762.327
  H     -270.315     328.131     761.498
  H     -270.314     328.031     763.303
  H     -267.836     335.521     763.419
  H     -268.292     334.833     764.959
  H     -269.215     334.454     763.524

 3  4  5  6  7  8  9  10  11  12  23  26  30  31 0
 6-311+G(2d,p)
 ****
 33  35  36  37  38 0
 6-311+G(2d,p)
 ****
 1  2  13  14  15  16  17  18  19  20  21  22  24  25 0
 3-21G
 ****
 27  28  29  32  34  39  40  41  42  43  44  45  46  47  48  49 0
 3-21G
 ****


