%nproc=1
%NoSave
%Mem=1900MB
#P OB98/GEN NMR

erre ene a

0 1
  C      519.345    -314.250     344.740
  O      518.614    -313.883     345.915
  P      517.182    -313.182     345.685
  C      515.779    -315.129     346.689
  O      516.092    -314.350     345.540
  C      514.322    -314.930     347.090
  O      513.431    -315.469     346.093
  C      513.929    -315.622     348.388
  O      514.338    -314.881     349.523
  C      512.410    -315.635     348.276
  O      511.878    -314.369     348.695
  C      512.197    -315.836     346.765
  N      508.545    -319.349     346.611
  C      508.499    -318.038     347.053
  N      507.295    -317.595     347.490
  N      509.526    -317.239     347.059
  C      510.655    -317.806     346.572
  C      510.826    -319.093     346.108
  C      509.680    -319.976     346.131
  O      509.672    -321.158     345.779
  N      512.110    -319.302     345.677
  C      512.704    -318.137     345.852
  N      511.868    -317.206     346.406
  O      517.302    -312.607     344.190
  O      516.865    -312.114     346.673
  H      510.909    -314.477     348.774
  H      516.716    -311.833     344.085
  H      507.716    -319.921     346.632
  H      513.736    -317.924     345.594
  H      511.411    -315.182     346.373
  H      511.946    -316.400     348.903
  H      506.441    -318.129     347.443
  H      514.312    -316.651     348.417
  H      507.235    -316.627     347.784
  H      514.134    -313.851     347.171
  H      516.427    -314.839     347.519
  H      515.989    -316.181     346.469
  P      515.124    -315.673     350.680
  C      517.474    -314.744     350.083
  O      516.616    -315.864     350.129
  O      514.494    -317.139     350.608
  O      514.999    -315.073     352.042
  H      514.531    -317.569     351.486
  H      517.382    -314.142     350.990
  H      517.223    -314.121     349.212
  H      518.504    -315.085     349.983
  H      520.272    -314.703     345.024
  H      519.539    -313.376     344.154
  H      518.770    -314.945     344.165

 3  4  5  6  7  8  9  10  11  12  23  26  30  31  33  0
 6-311+G(2d,p)
 ****
 35  36  37  38 0
 6-311+G(2d,p)
 ****
 1  2  13  14  15  16  17  18  19  20  21  22  24  25  27  28  29 0
 3-21G
 ****
 32  34  39  40  41  42  43  44  45  46  47  48  49 0
 3-21G
 ****


