%nproc=1
%NoSave
%Mem=1900MB
#P OB98/GEN NMR

erre ene a

0 1
  C     -215.728     -34.162     -55.659
  O     -214.864     -35.057     -56.332
  H     -216.668     -34.676     -55.436
  H     -215.945     -33.299     -56.296
  H     -215.277     -33.826     -54.721
  P     -213.381     -34.537     -56.654
  C     -212.566     -35.898     -54.584
  O     -212.375     -35.578     -55.955
  C     -212.282     -37.387     -54.357
  O     -213.242     -38.162     -55.129
  C     -210.878     -37.811     -54.799
  O     -210.379     -38.803     -53.896
  C     -211.120     -38.439     -56.166
  O     -210.111     -39.359     -56.559
  C     -212.492     -39.090     -55.945
  N     -213.197     -39.350     -57.199
  C     -213.477     -40.679     -57.514
  O     -213.248     -41.640     -56.770
  N     -214.059     -40.892     -58.736
  C     -214.355     -39.930     -59.670
  O     -214.854     -40.188     -60.757
  C     -214.020     -38.549     -59.284
  C     -213.465     -38.328     -58.091
  O     -213.244     -33.228     -55.738
  O     -213.087     -34.266     -58.090
  H     -213.532     -32.435     -56.228
  H     -209.978     -39.992     -55.821
  H     -214.274     -41.846     -58.974
  H     -214.234     -37.765     -60.003
  H     -213.199     -37.320     -57.787
  H     -212.386     -40.022     -55.376
  H     -211.181     -37.657     -56.931
  H     -210.178     -36.977     -54.856
  H     -212.447     -37.623     -53.293
  H     -213.605     -35.681     -54.305
  H     -211.896     -35.288     -53.971
  P     -208.926     -38.553     -53.256
  C     -209.738     -36.527     -51.814
  O     -209.186     -37.833     -51.841
  O     -208.357     -37.394     -54.199
  O     -208.091     -39.793     -53.201
  H     -209.039     -36.752     -54.473
  H     -209.842     -36.205     -50.799
  H     -210.698     -36.536     -52.286
  H     -209.090     -35.855     -52.337

 6  7  8  9  10  11  12  13  14  15  16  27  31  32  33  34  35 0
 6-311+G(2d,p)
 ****
 36  37 0
 6-311+G(2d,p)
 ****
 1  2  3  4  5  17  18  19  20  21  22  23  24  25 0
 3-21G
 ****
 26  28  29  30  38  39  40  41  42  43  44  45 0
 3-21G
 ****


