%nproc=1
%NoSave
%Mem=1900MB
#P OB98/GEN NMR

erre ene a

0 1
  C     -155.410     174.927     -34.963
  O     -154.832     174.822     -36.250
  P     -154.975     173.422     -37.019
  C     -152.487     172.715     -36.682
  O     -153.860     172.437     -36.428
  C     -151.751     171.414     -37.011
  O     -151.821     170.500     -35.895
  C     -152.344     170.661     -38.193
  O     -151.941     171.231     -39.428
  C     -151.800     169.256     -37.968
  O     -150.465     169.131     -38.485
  C     -151.802     169.159     -36.430
  N     -152.908     168.356     -35.917
  C     -152.897     167.009     -36.274
  O     -152.028     166.515     -36.996
  N     -153.940     166.259     -35.807
  C     -155.001     166.719     -35.081
  O     -155.937     166.007     -34.738
  C     -154.973     168.158     -34.758
  C     -153.947     168.897     -35.189
  O     -154.454     173.742     -38.500
  O     -156.357     172.858     -37.027
  H     -150.546     169.102     -39.460
  H     -154.969     173.227     -39.151
  H     -153.939     165.276     -36.033
  H     -155.798     168.557     -34.182
  H     -153.916     169.959     -34.974
  H     -150.861     168.710     -36.080
  H     -152.410     168.493     -38.463
  H     -153.438     170.638     -38.112
  H     -150.694     171.650     -37.195
  H     -152.042     173.179     -35.797
  H     -152.413     173.420     -37.514
  P     -153.032     171.266     -40.606
  C     -151.682     169.372     -41.802
  O     -152.925     169.830     -41.312
  O     -152.337     172.288     -41.626
  O     -154.386     171.674     -40.134
  H     -151.368     172.229     -41.599
  H     -150.856     169.697     -41.164
  H     -151.531     169.753     -42.815
  H     -151.697     168.278     -41.831
  H     -155.238     175.909     -34.574
  H     -154.966     174.203     -34.313
  H     -156.463     174.749     -35.029

 3  4  5  6  7  8  9  10  11  12  13  23  28  29  30  31  32 0
 6-311+G(2d,p)
 ****
 33  34 0
 6-311+G(2d,p)
 ****
 1  2  14  15  16  17  18  19  20  21  22  24  25  26 0
 3-21G
 ****
 27  35  36  37  38  39  40  41  42  43  44  45 0
 3-21G
 ****


