%nproc=1
%NoSave
%Mem=1900MB
#P OB98/GEN NMR

erre ene a

0 1
  C     -309.012     731.247     489.418
  O     -308.505     732.057     488.378
  H     -309.839     730.651     489.025
  H     -309.392     731.882     490.225
  H     -308.248     730.575     489.808
  P     -307.100     732.789     488.584
  C     -305.876     731.206     486.951
  O     -306.242     732.547     487.252
  C     -305.257     731.110     485.549
  O     -304.800     729.750     485.326
  C     -306.287     731.423     484.459
  O     -305.683     731.955     483.286
  C     -306.863     730.050     484.137
  O     -307.447     729.978     482.838
  C     -305.629     729.157     484.312
  N     -305.591     724.257     482.925
  C     -305.334     725.377     482.163
  N     -305.025     725.161     480.859
  N     -305.400     726.600     482.621
  C     -305.790     726.657     483.925
  C     -306.092     725.621     484.776
  C     -305.979     724.268     484.253
  O     -306.217     723.245     484.880
  N     -306.452     726.076     486.017
  C     -306.380     727.392     485.921
  N     -305.954     727.794     484.675
  O     -306.345     731.864     489.655
  O     -307.172     734.212     489.047
  H     -307.944     729.139     482.790
  H     -305.650     732.369     490.113
  H     -305.502     723.336     482.524
  H     -306.604     728.088     486.713
  H     -305.043     729.123     483.382
  H     -307.650     729.824     484.864
  H     -305.163     724.268     480.423
  H     -307.065     732.098     484.796
  H     -305.147     725.961     480.228
  H     -304.369     731.757     485.485
  H     -306.788     730.608     487.009
  H     -305.186     730.822     487.707
  P     -305.615     733.547     483.111
  C     -303.070     733.925     483.744
  O     -304.110     733.993     482.793
  O     -305.870     734.098     484.588
  O     -306.588     734.107     482.126
  H     -306.705     734.603     484.621
  H     -302.160     734.275     483.303
  H     -302.945     732.912     484.064
  H     -303.316     734.537     484.586

 6  7  8  9  10  11  12  13  14  15  26  29  33  34 0
 6-311+G(2d,p)
 ****
 36  38  39  40  41 0
 6-311+G(2d,p)
 ****
 1  2  3  4  5  16  17  18  19  20  21  22  23  24  25 0
 3-21G
 ****
 27  28  30  31  32  35  37  42  43  44  45  46  47 0
 3-21G
 ****
 48  49 0
 3-21G
 ****


