%nproc=1
%NoSave
%Mem=1900MB
#P OB98/GEN NMR

erre ene a

0 1
  C      405.446     560.989     292.837
  O      405.182     561.744     291.666
  P      405.267     560.988     290.246
  C      407.327     562.357     289.410
  O      405.964     562.010     289.225
  C      407.673     563.615     288.628
  O      407.658     563.294     287.210
  C      406.716     564.793     288.836
  O      407.493     565.993     288.713
  C      405.778     564.682     287.652
  O      405.111     565.901     287.354
  C      406.730     564.201     286.569
  N      404.451     564.739     282.083
  C      404.959     565.693     282.939
  N      404.904     566.981     282.510
  N      405.480     565.432     284.110
  C      405.480     564.103     284.393
  C      404.978     563.068     283.650
  C      404.439     563.379     282.343
  O      404.055     562.547     281.518
  N      405.080     561.874     284.320
  C      405.726     562.177     285.423
  N      406.029     563.513     285.502
  O      403.734     560.952     289.767
  O      405.884     559.622     290.276
  H      404.599     566.162     288.147
  H      403.305     560.122     290.030
  H      404.085     565.004     281.183
  H      405.996     561.482     286.202
  H      407.302     565.016     286.116
  H      405.002     563.924     287.862
  H      404.540     567.256     281.606
  H      406.192     564.775     289.795
  H      405.296     567.696     283.101
  H      408.704     563.903     288.883
  H      407.951     561.526     289.066
  H      407.516     562.496     290.482
  P      407.630     566.928     290.015
  C      406.768     568.961     288.662
  O      407.776     568.445     289.513
  O      409.110     566.579     290.537
  O      406.617     566.675     291.076
  H      409.140     566.661     291.515
  H      406.777     570.055     288.731
  H      405.775     568.600     288.939
  H      406.980     568.676     287.624
  H      405.353     561.619     293.696
  H      406.439     560.594     292.790
  H      404.745     560.184     292.908

 3  4  5  6  7  8  9  10  11  12  23  26  30  31 0
 6-311+G(2d,p)
 ****
 33  35  36  37  38 0
 6-311+G(2d,p)
 ****
 1  2  13  14  15  16  17  18  19  20  21  22  24  25 0
 3-21G
 ****
 27  28  29  32  34  39  40  41  42  43  44  45  46  47  48  49 0
 3-21G
 ****


