%nproc=1
%NoSave
%Mem=1900MB
#P OB98/GEN NMR

erre ene a

0 1
  C     -558.708     420.378    -109.730
  O     -559.868     420.250    -108.940
  H     -558.471     421.441    -109.840
  H     -558.884     419.955    -110.726
  H     -557.861     419.875    -109.258
  P     -560.364     418.752    -108.625
  C     -560.543     416.544    -109.996
  O     -560.184     417.924    -109.990
  C     -559.993     415.873    -111.246
  O     -560.733     416.332    -112.404
  C     -558.535     416.192    -111.540
  O     -557.653     415.423    -110.736
  C     -558.448     415.861    -113.025
  O     -558.243     414.464    -113.242
  C     -559.832     416.272    -113.539
  N     -558.558     418.636    -117.874
  C     -558.526     417.332    -117.510
  N     -558.902     416.783    -116.335
  C     -559.361     417.727    -115.497
  C     -559.446     419.092    -115.719
  C     -559.018     419.544    -116.985
  N     -559.013     420.875    -117.340
  N     -559.921     419.744    -114.604
  C     -560.130     418.788    -113.719
  N     -559.807     417.554    -114.212
  O     -561.952     418.920    -108.492
  O     -559.763     418.126    -107.411
  H     -558.901     413.994    -112.693
  H     -562.192     419.036    -107.552
  H     -558.149     416.644    -118.260
  H     -560.501     418.935    -112.711
  H     -560.250     415.544    -114.241
  H     -557.620     416.395    -113.503
  H     -558.344     417.268    -111.399
  H     -560.144     414.789    -111.157
  H     -561.638     416.462    -109.990
  H     -560.143     416.070    -109.088
  H     -558.671     421.130    -118.252
  H     -559.257     421.565    -116.644
  P     -556.259     416.074    -110.293
  C     -553.927     416.457    -111.394
  O     -555.267     416.011    -111.555
  O     -555.650     414.997    -109.279
  O     -556.370     417.436    -109.665
  H     -555.801     415.277    -108.359
  H     -553.402     416.350    -112.320
  H     -553.444     415.871    -110.640
  H     -553.926     417.486    -111.100

 6  7  8  9  10  11  12  13  14  15  25  28  32  33  34  35 0
 6-311+G(2d,p)
 ****
 36  37  40 0
 6-311+G(2d,p)
 ****
 1  2  3  4  5  16  17  18  19  20  21  22  23  24 0
 3-21G
 ****
 26  27  29  30  31  38  39 41  42  43  44  45  46  47  48 0
 3-21G
 ****


