%nproc=1
%NoSave
%Mem=1900MB
#P OB98/GEN NMR

erre ene a

0 1
  C     -257.571      18.208    -367.061
  O     -258.621      17.270    -367.182
  P     -260.070      17.539    -366.551
  C     -261.095      18.042    -368.858
  O     -260.802      18.552    -367.565
  C     -262.403      18.624    -369.401
  O     -262.639      18.122    -370.743
  C     -263.649      18.295    -368.559
  O     -264.514      19.432    -368.667
  C     -264.234      17.106    -369.296
  O     -265.604      16.890    -368.982
  C     -263.941      17.495    -370.753
  N     -263.996      16.346    -371.648
  C     -265.242      16.037    -372.198
  O     -266.247      16.672    -371.862
  N     -265.340      14.982    -373.070
  C     -264.297      14.237    -373.291
  N     -264.450      13.209    -374.170
  C     -262.995      14.452    -372.632
  C     -262.912      15.521    -371.843
  O     -260.070      17.971    -365.122
  O     -260.856      16.171    -366.804
  H     -265.849      15.984    -369.279
  H     -260.571      15.485    -366.151
  H     -262.175      13.774    -372.808
  H     -261.999      15.759    -371.320
  H     -264.661      18.244    -371.104
  H     -263.681      16.199    -369.026
  H     -263.422      18.076    -367.516
  H     -262.282      19.710    -369.479
  H     -265.358      13.109    -374.611
  H     -261.204      16.959    -368.777
  H     -263.685      12.624    -374.472
  H     -260.264      18.252    -369.537
  P     -265.442      19.887    -367.441
  C     -263.316      21.062    -366.639
  O     -264.466      20.332    -366.253
  O     -266.502      18.904    -367.051
  O     -266.087      21.273    -367.924
  H     -266.851      21.491    -367.357
  H     -262.889      21.544    -365.754
  H     -263.565      21.829    -367.377
  H     -262.573      20.380    -367.064
  H     -256.698      17.831    -367.551
  H     -257.356      18.372    -366.026
  H     -257.864      19.132    -367.515

 3  4  5  6  7  8  9  10  11  12  13  23  27  28  29  30  32 0
 6-311+G(2d,p)
 ****
 34  35 0
 6-311+G(2d,p)
 ****
 1  2  14  15  16  17  18  19  20  21  22  24  25  26 0
 3-21G
 ****
 31  33  36  37  38  39  40  41  42  43  44  45  46 0
 3-21G
 ****


