%nproc=1
%NoSave
%Mem=1900MB
#P OB98/GEN NMR

erre ene a

0 1
  C     -262.967     132.927    -652.059
  O     -261.753     132.599    -652.705
  H     -263.813     132.724    -652.721
  H     -263.067     132.304    -651.164
  H     -262.969     133.978    -651.758
  P     -261.409     133.409    -654.049
  C     -259.920     131.345    -654.575
  O     -260.053     132.762    -654.616
  C     -258.442     130.977    -654.482
  O     -257.764     131.316    -655.708
  C     -257.682     131.702    -653.367
  O     -257.878     131.104    -652.099
  C     -256.255     131.520    -653.855
  O     -255.802     130.185    -653.561
  C     -256.401     131.720    -655.369
  N     -252.881     135.275    -656.439
  C     -252.773     134.005    -656.003
  N     -253.758     133.118    -655.732
  C     -254.955     133.669    -655.971
  C     -255.237     134.958    -656.407
  C     -254.119     135.781    -656.652
  N     -254.226     137.090    -657.078
  N     -256.594     135.169    -656.487
  C     -257.139     134.021    -656.138
  N     -256.192     133.086    -655.808
  O     -260.929     134.842    -653.509
  O     -262.520     133.515    -655.040
  H     -255.746     130.106    -652.592
  H     -261.004     135.510    -654.220
  H     -251.757     133.646    -655.848
  H     -258.201     133.812    -656.113
  H     -255.722     131.074    -655.942
  H     -255.550     132.205    -653.374
  H     -257.924     132.770    -653.356
  H     -258.375     129.882    -654.348
  H     -260.342     130.917    -655.490
  H     -253.382     137.640    -657.059
  H     -255.149     137.516    -657.097
  H     -260.472     130.954    -653.711
  P     -258.144     132.083    -650.856
  C     -256.128     130.770    -649.867
  O     -257.371     131.425    -649.615
  O     -259.688     131.824    -650.511
  O     -257.857     133.525    -651.122
  H     -260.092     132.594    -650.078
  H     -255.736     130.384    -648.949
  H     -255.435     131.469    -650.285
  H     -256.282     129.965    -650.555

 6  7  8  9  10  11  12  13  14  15  25  28  32  33  34  35 0
 6-311+G(2d,p)
 ****
 36  39  40 0
 6-311+G(2d,p)
 ****
 1  2  3  4  5  16  17  18  19  20  21  22  23  24 0
 3-21G
 ****
 26  27  29  30  31  37  38  41  42  43  44  45  46  47 0
 3-21G
 ****
 48 0
 3-21G
 ****


