%nproc=1
%NoSave
%Mem=1900MB
#P OB98/GEN NMR

erre ene a

0 1
  C      147.320      15.142     279.003
  O      146.603      15.869     278.018
  P      147.191      16.059     276.535
  C      147.120      18.572     277.125
  O      147.863      17.516     276.537
  C      148.059      19.505     277.891
  O      148.825      18.741     278.845
  C      149.082      20.224     277.019
  O      148.484      21.298     276.310
  C      150.122      20.620     278.062
  O      149.694      21.791     278.776
  C      150.107      19.399     279.007
  N      151.210      18.472     278.754
  C      152.384      18.696     279.476
  O      152.472      19.625     280.280
  N      153.440      17.840     279.293
  C      153.340      16.854     278.450
  N      154.394      15.996     278.361
  C      152.140      16.615     277.632
  C      151.121      17.451     277.836
  O      146.212      15.827     275.436
  O      148.459      15.090     276.480
  H      150.328      21.922     279.508
  H      148.247      14.169     276.194
  H      152.109      15.793     276.933
  H      150.192      17.330     277.290
  H      150.150      19.726     280.054
  H      151.109      20.829     277.638
  H      149.528      19.525     276.301
  H      147.448      20.233     278.445
  H      155.120      16.095     279.062
  H      146.393      18.142     277.827
  H      154.292      15.072     277.964
  H      146.578      19.114     276.344
  P      148.365      21.162     274.717
  C      150.578      22.509     274.582
  O      149.847      21.374     274.145
  O      147.578      22.491     274.294
  O      147.670      19.923     274.254
  H      146.637      22.288     274.131
  H      151.624      22.382     274.300
  H      150.517      22.609     275.675
  H      150.191      23.409     274.105
  H      146.762      15.132     279.916
  H      148.268      15.608     279.170
  H      147.471      14.138     278.666

 3  4  5  6  7  8  9  10  11  12  13  23  27  28  29  30  32 0
 6-311+G(2d,p)
 ****
 34  35 0
 6-311+G(2d,p)
 ****
 1  2  14  15  16  17  18  19  20  21  22  24  25  26 0
 3-21G
 ****
 31  33  36  37  38  39  40  41  42  43  44  45  46 0
 3-21G
 ****


