%nproc=1
%NoSave
%Mem=1900MB
#P OB98/GEN NMR

erre ene a

0 1
  C       29.516    -255.175      19.663
  O       30.436    -254.565      20.551
  P       31.873    -255.251      20.745
  C       33.129    -254.224      18.716
  O       32.554    -255.385      19.294
  C       34.622    -254.140      19.034
  O       35.259    -255.410      18.724
  C       35.360    -253.058      18.239
  O       36.412    -252.509      19.046
  C       36.010    -253.827      17.110
  O       37.140    -253.132      16.583
  C       36.348    -255.141      17.815
  N       39.752    -257.924      15.323
  C       39.933    -257.067      16.390
  N       41.205    -256.859      16.787
  N       38.951    -256.470      17.017
  C       37.731    -256.766      16.505
  C       37.425    -257.612      15.461
  C       38.519    -258.255      14.772
  O       38.431    -259.004      13.802
  N       36.073    -257.685      15.257
  C       35.557    -256.853      16.143
  N       36.526    -256.246      16.898
  O       31.499    -256.761      21.126
  O       32.724    -254.627      21.797
  H       36.819    -252.267      16.266
  H       31.647    -256.906      22.078
  H       40.542    -258.350      14.867
  H       34.506    -256.640      16.261
  H       37.260    -255.050      18.417
  H       35.292    -253.981      16.296
  H       42.009    -257.235      16.307
  H       34.720    -252.244      17.878
  H       41.368    -256.201      17.538
  H       34.744    -253.979      20.110
  H       32.627    -253.341      19.115
  H       32.977    -254.240      17.631
  P       36.922    -251.041      18.637
  C       35.438    -250.035      20.526
  O       35.799    -250.027      19.157
  O       36.747    -251.023      17.047
  O       38.320    -250.739      19.058
  H       37.365    -250.384      16.645
  H       35.692    -249.067      20.963
  H       35.951    -250.824      21.083
  H       34.360    -250.193      20.603
  H       28.611    -254.605      19.641
  H       29.304    -256.169      19.997
  H       29.939    -255.211      18.681

 3  4  5  6  7  8  9  10  11  12  23  26  30  31 0
 6-311+G(2d,p)
 ****
 33  35  36  37  38 0
 6-311+G(2d,p)
 ****
 1  2  13  14  15  16  17  18  19  20  21  22  24  25 0
 3-21G
 ****
 27  28  29  32  34  39  40  41  42  43  44  45  46  47  48  49 0
 3-21G
 ****


