%nproc=1
%NoSave
%Mem=1900MB
#P OB98/GEN NMR

erre ene a

0 1
  C      -82.563     -83.936    -443.825
  O      -82.399     -82.678    -444.490
  P      -81.685     -81.417    -443.811
  C      -83.762     -80.176    -442.918
  O      -82.574     -80.889    -442.585
  C      -84.212     -79.266    -441.773
  O      -84.526     -80.044    -440.597
  C      -83.171     -78.250    -441.313
  O      -83.072     -77.169    -442.229
  C      -83.711     -77.869    -439.942
  O      -84.748     -76.881    -440.046
  C      -84.281     -79.216    -439.440
  N      -83.403     -79.880    -438.484
  C      -83.127     -79.183    -437.303
  O      -83.577     -78.053    -437.128
  N      -82.334     -79.791    -436.353
  C      -81.803     -80.943    -436.602
  N      -81.030     -81.495    -435.625
  C      -81.991     -81.672    -437.877
  C      -82.796     -81.080    -438.760
  O      -81.287     -80.345    -444.770
  O      -80.385     -82.022    -443.089
  H      -85.337     -77.182    -440.766
  H      -79.669     -81.347    -443.088
  H      -81.504     -82.615    -438.055
  H      -82.996     -81.549    -439.725
  H      -85.263     -79.063    -438.970
  H      -82.937     -77.452    -439.280
  H      -82.196     -78.744    -441.204
  H      -85.128     -78.755    -442.092
  H      -80.927     -80.981    -434.762
  H      -84.552     -80.908    -443.126
  H      -80.571     -82.392    -435.714
  H      -83.576     -79.589    -443.824
  P      -81.636     -76.760    -442.821
  C      -80.843     -74.747    -441.437
  O      -80.768     -76.152    -441.617
  O      -81.672     -75.938    -444.067
  O      -80.916     -78.170    -443.084
  H      -80.319     -78.082    -443.851
  H      -80.570     -74.517    -440.404
  H      -81.859     -74.379    -441.633
  H      -80.145     -74.258    -442.123
  H      -83.066     -84.621    -444.476
  H      -83.143     -83.797    -442.937
  H      -81.603     -84.330    -443.566

 3  4  5  6  7  8  9  10  11  12  13  23  27  28  29  30  32 0
 6-311+G(2d,p)
 ****
 34  35 0
 6-311+G(2d,p)
 ****
 1  2  14  15  16  17  18  19  20  21  22  24  25  26 0
 3-21G
 ****
 31  33  36  37  38  39  40  41  42  43  44  45  46 0
 3-21G
 ****


