%nproc=1
%NoSave
%Mem=1900MB
#P OB98/GEN NMR

erre ene a

0 1
  C     -372.762    -349.116    -899.104
  O     -373.966    -349.767    -898.734
  P     -373.954    -350.676    -897.404
  C     -374.180    -349.122    -895.324
  O     -374.847    -349.901    -896.314
  C     -375.186    -348.358    -894.474
  O     -375.929    -347.441    -895.304
  C     -376.230    -349.225    -893.794
  O     -375.728    -349.827    -892.604
  C     -377.301    -348.201    -893.454
  O     -376.946    -347.496    -892.254
  C     -377.243    -347.255    -894.694
  N     -381.521    -345.547    -896.754
  C     -380.758    -344.989    -895.754
  N     -381.143    -343.808    -895.254
  N     -379.670    -345.564    -895.294
  C     -379.360    -346.732    -895.904
  C     -380.060    -347.377    -896.924
  C     -381.288    -346.759    -897.394
  O     -382.060    -347.238    -898.214
  N     -379.440    -348.537    -897.294
  C     -378.330    -348.568    -896.554
  N     -378.262    -347.510    -895.674
  O     -372.461    -350.476    -896.854
  O     -374.275    -352.109    -897.634
  H     -376.766    -348.176    -891.584
  H     -372.177    -351.250    -896.324
  H     -382.336    -345.050    -897.104
  H     -377.578    -349.338    -896.624
  H     -377.289    -346.207    -894.394
  H     -378.293    -348.658    -893.304
  H     -381.906    -343.261    -895.684
  H     -376.628    -349.983    -894.474
  H     -380.562    -343.365    -894.574
  H     -374.608    -347.767    -893.734
  H     -373.514    -348.388    -895.834
  H     -373.564    -349.796    -894.724
  P     -376.601    -351.015    -891.944
  C     -375.016    -352.974    -892.574
  O     -375.535    -352.164    -891.554
  O     -377.389    -351.601    -893.204
  O     -377.526    -350.540    -890.864
  H     -378.234    -352.017    -892.924
  H     -374.858    -352.424    -893.504
  H     -375.704    -353.809    -892.764
  H     -374.061    -353.380    -892.254
  H     -372.922    -348.553    -900.000
  H     -371.999    -349.847    -899.273
  H     -372.457    -348.457    -898.318

 3  4  5  6  7  8  9  10  11  12  23  26  30  31  33  0
 6-311+G(2d,p)
 ****
 35  36  37  38 0
 6-311+G(2d,p)
 ****
 1  2  13  14  15  16  17  18  19  20  21  22  24  25  27  28  29 0
 3-21G
 ****
 32  34  39  40  41  42  43  44  45  46  47  48  49 0
 3-21G
 ****


