%nproc=1
%NoSave
%Mem=1900MB
#P OB98/GEN NMR

erre ene a

0 1
  C      152.279      -3.236      47.574
  O      151.562      -4.463      47.385
  P      152.279      -5.884      47.177
  C      153.010      -6.192      49.643
  O      153.428      -6.029      48.290
  C      153.062      -7.668      50.052
  O      154.437      -8.112      50.156
  C      152.463      -7.986      51.414
  O      151.050      -7.934      51.409
  C      153.042      -9.375      51.676
  O      152.250     -10.396      51.053
  C      154.422      -9.290      50.997
  N      155.524      -9.269      51.945
  C      155.915     -10.501      52.482
  O      155.286     -11.525      52.211
  N      156.998     -10.534      53.323
  C      157.570      -9.429      53.683
  N      158.652      -9.525      54.504
  C      157.102      -8.098      53.247
  C      156.088      -8.092      52.387
  O      152.761      -6.121      45.783
  O      151.189      -6.976      47.604
  H      151.366      -7.814      47.137
  H      152.348     -10.279      50.088
  H      157.584      -7.200      53.604
  H      155.690      -7.159      52.004
  H      154.557     -10.134      50.309
  H      153.084      -9.608      52.745
  H      152.860      -7.281      52.156
  H      152.564      -8.256      49.269
  H      158.953     -10.453      54.776
  H      151.978      -5.838      49.731
  H      159.183      -8.729      54.825
  H      153.646      -5.584      50.292
  P      150.333      -7.491      52.774
  C      150.437      -4.898      52.683
  O      150.969      -6.091      53.225
  O      150.898      -8.533      53.852
  O      148.839      -7.516      52.726
  H      150.185      -8.784      54.471
  H      150.600      -4.088      53.396
  H      149.366      -4.987      52.482
  H      150.961      -4.662      51.753
  H      151.584      -2.431      47.690
  H      152.900      -3.051      46.723
  H      152.888      -3.310      48.451

 3  4  5  6  7  8  9  10  11  12  13  24  27  28  29  30  32 0
 6-311+G(2d,p)
 ****
 34  35 0
 6-311+G(2d,p)
 ****
 1  2  14  15  16  17  18  19  20  21  22  23  25  26 0
 3-21G
 ****
 31  33  36  37  38  39  40  41  42  43  44  45  46 0
 3-21G
 ****


