%nproc=1
%NoSave
%Mem=1900MB
#P OB98/GEN NMR

erre ene a

0 1
  C      298.783     361.357      89.744
  O      299.106     359.974      89.728
  P      300.629     359.560      89.406
  C      300.610     358.345      87.099
  O      300.558     358.229      88.510
  C      299.846     357.198      86.438
  O      300.648     355.992      86.544
  C      298.477     356.890      87.060
  O      297.630     356.423      85.998
  C      298.784     355.744      88.006
  O      297.628     354.980      88.336
  C      299.845     354.994      87.209
  N      301.917     350.423      87.859
  C      301.021     350.859      86.903
  N      300.675     349.963      85.956
  N      300.510     352.063      86.881
  C      300.964     352.851      87.884
  C      301.818     352.523      88.908
  C      302.403     351.205      88.900
  O      303.269     350.804      89.680
  N      301.967     353.568      89.787
  C      301.268     354.547      89.253
  N      300.678     354.175      88.071
  O      301.162     359.040      90.822
  O      301.488     360.644      88.832
  H      297.902     354.277      88.960
  H      301.610     359.754      91.316
  H      302.295     349.489      87.817
  H      301.161     355.537      89.663
  H      299.410     354.333      86.447
  H      299.196     356.141      88.945
  H      301.051     349.027      85.894
  H      298.021     357.744      87.561
  H      300.044     350.267      85.224
  H      299.737     357.426      85.371
  H      301.653     358.305      86.778
  H      300.197     359.314      86.798
  P      296.099     356.897      86.000
  C      295.118     354.697      85.042
  O      295.341     356.082      84.849
  O      296.193     358.381      85.396
  O      295.448     356.907      87.342
  H      295.489     358.939      85.789
  H      294.281     354.378      84.408
  H      294.879     354.465      86.082
  H      296.016     354.144      84.742
  H      297.744     361.478      89.970
  H      298.991     361.783      88.785
  H      299.370     361.852      90.489

 3  4  5  6  7  8  9  10  11  12  23  26  30  31 0
 6-311+G(2d,p)
 ****
 33  35  36  37  38 0
 6-311+G(2d,p)
 ****
 1  2  13  14  15  16  17  18  19  20  21  22  24  25 0
 3-21G
 ****
 27  28  29  32  34  39  40  41  42  43  44  45  46  47  48  49 0
 3-21G
 ****


