%nproc=1
%NoSave
%Mem=1900MB
#P OB98/GEN NMR

erre ene a

0 1
  C     1169.313    -410.944    -897.566
  O     1170.147    -410.001    -898.230
  H     1169.892    -411.845    -897.360
  H     1168.452    -411.198    -898.172
  H     1168.984    -410.528    -896.608
  P     1169.464    -408.696    -898.849
  C     1169.220    -408.832    -901.428
  O     1168.668    -409.206    -900.161
  C     1170.298    -409.816    -901.871
  O     1169.752    -411.152    -901.950
  C     1170.848    -409.531    -903.264
  O     1171.642    -408.365    -903.341
  C     1171.470    -410.882    -903.661
  O     1172.805    -411.048    -903.184
  C     1170.519    -411.874    -902.922
  N     1169.671    -412.603    -903.866
  C     1170.295    -413.611    -904.583
  O     1171.477    -413.914    -904.470
  N     1169.481    -414.286    -905.477
  C     1168.184    -413.997    -905.749
  O     1167.544    -414.615    -906.590
  C     1167.591    -412.893    -904.985
  C     1168.343    -412.244    -904.091
  O     1170.383    -407.531    -899.106
  O     1168.275    -408.362    -897.826
  H     1173.350    -410.343    -903.582
  H     1167.950    -407.427    -897.956
  H     1169.916    -415.045    -906.000
  H     1166.562    -412.633    -905.182
  H     1167.943    -411.421    -903.519
  H     1171.114    -412.621    -902.376
  H     1171.485    -411.007    -904.742
  H     1170.001    -409.380    -903.931
  H     1171.107    -409.825    -901.109
  H     1169.670    -407.830    -901.303
  H     1168.427    -408.768    -902.172
  P     1172.198    -407.761    -904.731
  C     1174.793    -407.856    -904.957
  O     1173.560    -408.548    -905.117
  O     1172.142    -406.273    -904.889
  O     1171.121    -408.395    -905.785
  H     1170.993    -407.741    -906.486
  H     1175.601    -408.494    -905.248
  H     1174.913    -407.574    -903.932
  H     1174.792    -406.979    -905.571

 6  7  8  9  10  11  12  13  14  15  16  26  31  32  33  34  35 0
 6-311+G(2d,p)
 ****
 36  37 0
 6-311+G(2d,p)
 ****
 1  2  3  4  5  17  18  19  20  21  22  23  24  25 0
 3-21G
 ****
 27  28  29  30  38  39  40  41  42  43  44  45 0
 3-21G
 ****


