%nproc=1
%NoSave
%Mem=1900MB
#P OB98/GEN NMR

erre ene a

0 1
  C       51.426     -19.793     -29.320
  O       51.492     -20.868     -28.406
  H       50.484     -19.258     -29.169
  H       51.455     -20.170     -30.347
  H       52.256     -19.100     -29.154
  P       52.825     -21.760     -28.435
  C       51.549     -23.159     -30.217
  O       52.785     -22.582     -29.813
  C       51.641     -23.609     -31.673
  O       50.411     -24.267     -32.052
  C       51.820     -22.469     -32.671
  O       53.162     -22.018     -32.725
  C       51.347     -23.128     -33.961
  O       52.390     -23.900     -34.570
  C       50.227     -24.056     -33.470
  N       46.631     -23.417     -37.027
  C       47.816     -24.067     -37.046
  N       48.712     -24.207     -36.044
  C       48.273     -23.595     -34.931
  C       47.093     -22.888     -34.764
  C       46.244     -22.811     -35.879
  N       45.055     -22.121     -35.871
  N       47.020     -22.365     -33.488
  C       48.128     -22.756     -32.894
  N       48.912     -23.505     -33.725
  O       52.535     -22.873     -27.320
  O       54.093     -21.019     -28.172
  H       52.593     -24.631     -33.953
  H       52.924     -22.593     -26.470
  H       48.082     -24.534     -37.991
  H       48.411     -22.517     -31.874
  H       50.266     -25.041     -33.951
  H       51.025     -22.384     -34.691
  H       51.142     -21.642     -32.427
  H       52.457     -24.336     -31.763
  H       50.752     -22.412     -30.122
  H       51.323     -24.007     -29.564
  H       44.507     -22.088     -36.715
  H       44.808     -21.577     -35.055
  P       53.480     -20.658     -33.510
  C       54.247     -21.646     -35.791
  O       53.250     -20.933     -35.074
  O       55.069     -20.524     -33.377
  O       52.772     -19.455     -32.984
  H       55.299     -19.889     -32.672
  H       53.948     -21.747     -36.813
  H       54.372     -22.617     -35.359
  H       55.173     -21.112     -35.741

 6  7  8  9  10  11  12  13  14  15  25  28  32  33  34  35 0
 6-311+G(2d,p)
 ****
 36  37  40 0
 6-311+G(2d,p)
 ****
 1  2  3  4  5  16  17  18  19  20  21  22  23  24 0
 3-21G
 ****
 26  27  29  30  31  38  39 41  42  43  44  45  46  47  48 0
 3-21G
 ****


