%nproc=1
%NoSave
%Mem=1900MB
#P OB98/GEN NMR

erre ene a

0 1
  C      141.487    -120.476     343.786
  O      141.870    -119.212     344.336
  P      141.643    -117.920     343.413
  C      139.332    -117.342     344.440
  O      140.660    -116.907     344.181
  C      138.635    -116.455     345.480
  O      139.426    -116.359     346.696
  C      138.377    -115.031     344.992
  O      137.153    -114.585     345.586
  C      139.525    -114.246     345.603
  O      139.221    -112.855     345.675
  C      139.665    -114.962     346.961
  N      140.966    -114.739     347.593
  C      140.987    -113.947     348.741
  O      139.949    -113.404     349.139
  N      142.181    -113.746     349.385
  C      143.268    -114.251     348.894
  N      144.424    -114.016     349.577
  C      143.303    -115.049     347.654
  C      142.127    -115.254     347.066
  O      140.745    -118.480     342.210
  O      142.913    -117.312     342.911
  H      138.336    -112.761     346.091
  H      141.132    -118.208     341.355
  H      144.237    -115.433     347.273
  H      142.047    -115.830     346.152
  H      138.892    -114.617     347.659
  H      140.434    -114.373     345.005
  H      138.314    -114.941     343.903
  H      137.684    -116.931     345.748
  H      144.362    -113.472     350.429
  H      139.343    -118.374     344.798
  H      145.325    -114.357     349.288
  H      138.775    -117.355     343.496
  P      135.938    -114.189     344.620
  C      134.902    -116.401     343.820
  O      134.871    -115.375     344.799
  O      136.554    -114.530     343.177
  O      135.412    -112.794     344.674
  H      135.926    -114.262     342.482
  H      134.216    -117.196     344.127
  H      135.908    -116.813     343.729
  H      134.569    -116.006     342.857
  H      141.689    -121.250     344.497
  H      142.044    -120.659     342.891
  H      140.441    -120.464     343.559

 3  4  5  6  7  8  9  10  11  12  13  21  23  27  28  29  30  32 0
 6-311+G(2d,p)
 ****
 34  35 0
 6-311+G(2d,p)
 ****
 1  2  14  15  16  17  18  19  20  22  24  25  26 0
 3-21G
 ****
 31  33  36  37  38  39  40  41  42  43  44  45  46 0
 3-21G
 ****


