%nproc=1
%NoSave
%Mem=1900MB
#P OB98/GEN NMR

erre ene a

0 1
  C     -138.789      31.085     -89.592
  O     -137.749      30.207     -89.963
  H     -138.506      31.588     -88.664
  H     -139.708      30.520     -89.419
  H     -138.961      31.842     -90.361
  P     -137.752      29.586     -91.438
  C     -137.037      27.141     -91.026
  O     -136.640      28.431     -91.467
  C     -136.171      26.679     -89.847
  O     -136.781      27.128     -88.610
  C     -136.089      25.151     -89.776
  O     -134.879      24.705     -89.170
  C     -137.256      24.796     -88.868
  O     -137.107      23.525     -88.235
  C     -137.252      25.974     -87.896
  N     -141.224      24.145     -85.278
  C     -140.159      23.466     -85.835
  N     -140.150      22.122     -85.668
  N     -139.203      24.047     -86.511
  C     -139.379      25.382     -86.659
  C     -140.404      26.162     -86.174
  C     -141.438      25.512     -85.397
  O     -142.416      26.063     -84.901
  N     -140.246      27.477     -86.536
  C     -139.133      27.492     -87.240
  N     -138.556      26.248     -87.322
  O     -137.080      30.734     -92.331
  O     -139.096      29.192     -91.971
  H     -136.999      22.860     -88.939
  H     -137.336      30.630     -93.265
  H     -141.918      23.654     -84.742
  H     -138.696      28.371     -87.695
  H     -136.560      25.788     -87.066
  H     -138.162      24.748     -89.477
  H     -140.960      21.625     -85.330
  H     -136.194      24.678     -90.749
  H     -139.567      21.590     -86.319
  H     -135.182      27.148     -89.901
  H     -136.922      26.464     -91.875
  H     -138.093      27.141     -90.751
  P     -133.896      23.771     -90.022
  C     -133.012      22.012     -88.254
  O     -132.784      23.142     -89.066
  O     -133.082      24.803     -90.929
  O     -134.592      22.731     -90.843
  H     -133.284      24.660     -91.872
  H     -132.122      21.781     -87.707
  H     -133.279      21.179     -88.870
  H     -133.808      22.219     -87.570

 6  7  8  9  10  11  12  13  14  15  26  29  33  34 0
 6-311+G(2d,p)
 ****
 36  38  39  40  41 0
 6-311+G(2d,p)
 ****
 1  2  3  4  5  16  17  18  19  20  21  22  23  24  25 0
 3-21G
 ****
 27  28  30  31  32  35  37  42  43  44  45  46  47 0
 3-21G
 ****
 48  49 0
 3-21G
 ****


