%nproc=1
%NoSave
%Mem=1900MB
#P OB98/GEN NMR

erre ene a

0 1
  C      155.914    -154.594     327.994
  O      156.123    -154.572     329.395
  P      156.921    -155.751     330.134
  C      154.919    -156.199     331.706
  O      155.786    -156.725     330.707
  C      153.902    -157.257     332.121
  O      153.158    -157.692     330.964
  C      154.510    -158.520     332.720
  O      154.926    -158.302     334.059
  C      153.363    -159.507     332.542
  O      152.379    -159.321     333.571
  C      152.781    -159.072     331.179
  N      153.230    -159.917     330.076
  C      152.779    -161.239     330.078
  O      152.032    -161.653     330.965
  N      153.154    -162.066     329.048
  C      153.933    -161.619     328.111
  N      154.217    -162.466     327.082
  C      154.481    -160.252     328.100
  C      154.088    -159.462     329.098
  O      157.921    -155.297     331.142
  O      157.549    -156.615     328.945
  H      151.523    -159.617     333.200
  H      158.441    -156.300     328.655
  H      155.135    -159.932     327.306
  H      154.428    -158.436     329.154
  H      151.685    -159.090     331.213
  H      153.680    -160.553     332.564
  H      155.373    -158.848     332.128
  H      153.198    -156.800     332.832
  H      153.686    -163.325     327.038
  H      154.392    -155.334     331.292
  H      154.563    -162.118     326.195
  H      155.519    -155.871     332.563
  P      155.706    -159.490     334.797
  C      154.091    -159.757     336.809
  O      154.591    -160.316     335.606
  O      156.543    -158.731     335.931
  O      156.582    -160.304     333.899
  H      157.473    -158.632     335.657
  H      153.194    -160.309     337.099
  H      153.832    -158.704     336.671
  H      154.838    -159.860     337.602
  H      155.365    -153.723     327.702
  H      155.360    -155.471     327.730
  H      156.859    -154.605     327.493

 3  4  5  6  7  8  9  10  11  12  13  23  27  28  29  30  32 0
 6-311+G(2d,p)
 ****
 34  35 0
 6-311+G(2d,p)
 ****
 1  2  14  15  16  17  18  19  20  21  22  24  25  26 0
 3-21G
 ****
 31  33  36  37  38  39  40  41  42  43  44  45  46 0
 3-21G
 ****


