%nproc=1
%NoSave
%Mem=1900MB
#P OB98/GEN NMR

erre ene a

0 1
  C      210.119    -222.170     456.933
  O      210.990    -223.281     456.864
  P      211.693    -223.756     458.235
  C      213.928    -222.602     457.566
  O      212.886    -222.717     458.535
  C      215.286    -222.433     458.246
  O      216.296    -222.226     457.222
  C      215.378    -221.245     459.227
  O      216.247    -221.652     460.288
  C      216.019    -220.173     458.366
  O      216.576    -219.092     459.095
  C      217.014    -221.021     457.576
  N      220.115    -217.346     455.804
  C      219.902    -217.825     457.057
  N      219.067    -218.811     457.447
  C      218.416    -219.328     456.390
  C      218.517    -218.940     455.072
  C      219.416    -217.893     454.791
  N      219.625    -217.404     453.507
  N      217.675    -219.683     454.262
  C      217.075    -220.512     455.095
  N      217.508    -220.346     456.388
  O      212.461    -225.090     457.797
  O      210.753    -223.992     459.381
  H      215.867    -218.594     459.550
  H      212.416    -225.768     458.509
  H      220.477    -217.355     457.851
  H      216.315    -221.229     454.812
  H      217.879    -221.307     458.177
  H      215.263    -219.752     457.699
  H      214.410    -220.959     459.648
  H      215.531    -223.365     458.768
  H      213.737    -221.708     456.956
  H      220.132    -216.529     453.446
  H      218.958    -217.677     452.803
  H      213.913    -223.473     456.914
  P      215.876    -221.243     461.798
  C      217.758    -219.486     461.738
  O      216.383    -219.719     461.915
  O      217.016    -222.017     462.616
  O      214.489    -221.541     462.235
  H      217.906    -221.840     462.251
  H      217.953    -218.417     461.743
  H      218.098    -219.902     460.776
  H      218.333    -219.956     462.556
  H      209.725    -221.965     455.960
  H      210.658    -221.316     457.287
  H      209.315    -222.388     457.604

 3  4  5  6  7  8  9  10  11  12  22  25  29  30  31  32 0
 6-311+G(2d,p)
 ****
 33  36  37 0
 6-311+G(2d,p)
 ****
 1  2  13  14  15  16  17  18  19  20  21  23  24  26 0
 3-21G
 ****
 27  28  34  35  38  39  40  41  42  43  44  45  46  47  48 0
 3-21G
 ****


