%nproc=1
%NoSave
%Mem=1900MB
#P OB98/GEN NMR

erre ene a

0 1
  C      369.142     601.668     331.993
  O      370.190     600.952     331.323
  P      369.858     600.247     329.928
  C      369.864     602.019     328.044
  O      370.618     601.046     328.757
  C      370.364     602.141     326.591
  O      369.411     602.922     325.828
  C      371.712     602.846     326.431
  O      372.900     602.059     326.496
  C      371.606     603.357     324.990
  O      371.976     602.307     324.075
  C      370.125     603.677     324.839
  N      370.148     608.244     322.506
  C      370.490     607.002     322.079
  N      370.458     605.845     322.767
  C      369.997     606.042     324.009
  C      369.612     607.247     324.583
  C      369.705     608.386     323.779
  N      369.368     609.649     324.213
  N      369.210     607.044     325.895
  C      369.369     605.756     326.106
  N      369.829     605.101     324.997
  O      368.419     599.953     329.661
  O      370.712     598.893     330.012
  H      371.943     602.696     323.178
  H      370.201     598.166     329.596
  H      370.845     606.940     321.052
  H      369.163     605.255     327.040
  H      369.737     603.388     323.851
  H      372.290     604.193     324.793
  H      371.792     603.696     327.126
  H      370.413     601.135     326.149
  H      369.949     602.992     328.543
  H      369.514     610.421     323.599
  H      369.087     609.786     325.177
  H      368.809     601.719     328.096
  P      373.568     601.672     327.906
  C      372.455     599.314     327.983
  O      373.635     600.070     327.934
  O      372.918     602.290     329.102
  O      375.097     602.098     327.690
  H      375.571     601.554     327.049
  H      372.698     598.256     327.774
  H      371.735     599.660     327.245
  H      372.020     599.380     328.985
  H      369.519     602.080     332.906
  H      368.335     600.999     332.209
  H      368.791     602.459     331.363

 3  4  5  6  7  8  9  10  11  12  22  25  29  30  31  32 0
 6-311+G(2d,p)
 ****
 33  36  37 0
 6-311+G(2d,p)
 ****
 1  2  13  14  15  16  17  18  19  20  21  23  24  26 0
 3-21G
 ****
 27  28  34  35  38  39  40  41  42  43  44  45  46  47  48 0
 3-21G
 ****


