%nproc=1
%NoSave
%Mem=1900MB
#P OB98/GEN NMR

erre ene a

0 1
  C     -102.807    -498.393    -245.576
  O     -102.258    -499.666    -245.928
  P     -103.179    -500.954    -245.665
  C     -103.283    -502.854    -243.907
  O     -102.827    -501.545    -244.210
  C     -102.671    -503.368    -242.593
  O     -101.242    -503.613    -242.752
  C     -102.824    -502.395    -241.419
  O     -102.971    -503.178    -240.227
  C     -101.484    -501.690    -241.377
  O     -101.252    -501.079    -240.107
  C     -100.551    -502.845    -241.733
  N      -95.990    -501.024    -240.331
  C      -97.075    -501.397    -239.615
  N      -98.264    -501.855    -240.067
  C      -98.250    -501.949    -241.416
  C      -97.224    -501.597    -242.275
  C      -96.048    -501.113    -241.682
  N      -94.947    -500.708    -242.410
  N      -97.609    -501.798    -243.587
  C      -98.842    -502.248    -243.519
  N      -99.264    -502.390    -242.223
  O     -102.573    -502.049    -246.669
  O     -104.632    -500.721    -245.926
  H     -101.035    -501.784    -239.462
  H     -103.189    -502.194    -247.413
  H      -96.980    -501.313    -238.534
  H      -99.471    -502.484    -244.362
  H     -100.354    -503.511    -240.882
  H     -101.450    -500.908    -242.146
  H     -103.664    -501.700    -241.513
  H     -103.139    -504.330    -242.344
  H     -103.018    -503.541    -244.712
  H      -94.149    -500.342    -241.909
  H      -94.997    -500.722    -243.420
  H     -104.378    -502.856    -243.858
  P     -104.021    -502.639    -239.141
  C     -103.825    -501.287    -236.936
  O     -103.179    -501.745    -238.104
  O     -104.398    -503.947    -238.294
  O     -105.229    -501.981    -239.728
  H     -105.280    -503.850    -237.897
  H     -103.120    -501.363    -236.097
  H     -104.718    -501.867    -236.695
  H     -104.099    -500.240    -237.063
  H     -102.097    -497.624    -245.800
  H     -103.031    -498.378    -244.530
  H     -103.704    -498.224    -246.135

 3  4  5  6  7  8  9  10  11  12  22  25  29  30  31  32 0
 6-311+G(2d,p)
 ****
 33  36  37 0
 6-311+G(2d,p)
 ****
 1  2  13  14  15  16  17  18  19  20  21  23  24  26 0
 3-21G
 ****
 27  28  34  35  38  39  40  41  42  43  44  45  46  47  48 0
 3-21G
 ****


