%nproc=1
%NoSave
%Mem=1900MB
#P OB98/GEN NMR

erre ene a

0 1
  C      589.261     320.232    -258.567
  O      589.422     321.634    -258.636
  H      590.113     319.757    -259.063
  H      588.342     319.926    -259.080
  H      589.236     319.903    -257.525
  P      588.269     322.572    -258.039
  C      589.294     323.394    -255.816
  O      589.002     323.710    -257.173
  C      589.086     324.631    -254.929
  O      589.151     324.194    -253.550
  C      590.168     325.699    -255.148
  O      589.632     326.988    -255.430
  C      591.056     325.556    -253.919
  O      591.756     326.733    -253.561
  C      590.087     325.041    -252.852
  N      590.739     324.302    -251.767
  C      591.198     325.039    -250.677
  O      591.073     326.252    -250.541
  N      591.816     324.309    -249.692
  C      592.024     322.965    -249.694
  O      592.579     322.365    -248.781
  C      591.535     322.244    -250.886
  C      590.928     322.933    -251.857
  O      587.163     321.863    -257.330
  O      587.731     323.384    -259.309
  H      592.340     326.516    -252.809
  H      586.883     322.998    -259.610
  H      592.140     324.831    -248.892
  H      591.698     321.175    -250.927
  H      590.555     322.440    -252.746
  H      589.532     325.864    -252.404
  H      591.813     324.786    -254.123
  H      590.765     325.471    -256.042
  H      588.081     325.028    -255.105
  H      590.335     323.060    -255.764
  H      588.642     322.582    -255.476
  P      589.080     327.455    -256.857
  C      586.562     326.890    -257.311
  O      587.515     327.755    -256.715
  O      589.511     326.619    -258.016
  O      589.733     328.916    -257.046
  H      589.889     329.033    -258.005
  H      585.576     327.252    -257.109
  H      586.671     325.906    -256.905
  H      586.721     326.859    -258.369

 6  7  8  9  10  11  12  13  14  15  16  26  31  32  33  34  35 0
 6-311+G(2d,p)
 ****
 36  37 0
 6-311+G(2d,p)
 ****
 1  2  3  4  5  17  18  19  20  21  22  23  24  25 0
 3-21G
 ****
 27  28  29  30  38  39  40  41  42  43  44  45 0
 3-21G
 ****


