%nproc=1
%NoSave
%Mem=1900MB
#P OB98/GEN NMR

erre ene a

0 1
  C     -626.400     123.140     194.014
  O     -625.134     122.504     194.051
  H     -626.327     124.091     194.548
  H     -627.153     122.519     194.504
  H     -626.699     123.339     192.981
  P     -624.983     121.077     193.333
  C     -622.765     120.815     194.631
  O     -624.002     120.218     194.264
  C     -621.963     119.874     195.520
  O     -622.511     119.854     196.850
  C     -621.952     118.420     195.030
  O     -620.988     118.258     194.003
  C     -621.582     117.705     196.321
  O     -620.172     117.853     196.576
  C     -622.405     118.491     197.360
  N     -626.437     118.633     200.425
  C     -625.204     119.258     200.547
  N     -625.013     119.988     201.666
  N     -624.251     119.151     199.660
  C     -624.563     118.337     198.629
  C     -625.740     117.649     198.412
  C     -626.809     117.810     199.376
  O     -627.920     117.292     199.296
  N     -625.663     116.864     197.281
  C     -624.456     117.104     196.808
  N     -623.743     117.977     197.593
  O     -624.579     121.102     191.890
  O     -626.409     120.376     193.549
  H     -619.707     117.410     195.842
  H     -627.003     120.551     192.796
  H     -627.124     118.739     201.157
  H     -624.052     116.677     195.897
  H     -621.896     118.541     198.328
  H     -621.797     116.634     196.290
  H     -625.590     119.864     202.488
  H     -622.951     118.092     194.720
  H     -624.105     120.408     201.800
  H     -620.942     120.264     195.596
  H     -622.993     121.748     195.161
  H     -622.178     121.058     193.732
  P     -621.215     117.191     192.826
  C     -618.930     118.080     192.007
  O     -619.759     116.944     192.194
  O     -622.274     117.565     191.834
  O     -621.504     115.806     193.575
  H     -622.460     115.668     193.788
  H     -617.997     117.774     191.582
  H     -618.754     118.553     192.951
  H     -619.414     118.770     191.347

 6  7  8  9  10  11  12  13  14  15  26  29  33  34 0
 6-311+G(2d,p)
 ****
 36  38  39  40  41 0
 6-311+G(2d,p)
 ****
 1  2  3  4  5  16  17  18  19  20  21  22  23  24  25 0
 3-21G
 ****
 27  28  30  31  32  35  37  42  43  44  45  46  47 0
 3-21G
 ****
 48  49 0
 3-21G
 ****


