%nproc=1
%NoSave
%Mem=1900MB
#P OB98/GEN NMR

erre ene a

0 1
  C       26.226     185.388    -387.732
  O       26.444     184.189    -388.449
  H       27.135     185.632    -387.174
  H       25.400     185.278    -387.026
  H       26.014     186.207    -388.427
  P       25.179     183.485    -389.143
  C       26.742     181.939    -390.498
  O       25.678     182.012    -389.551
  C       26.815     180.547    -391.132
  O       25.534     180.186    -391.687
  C       27.792     180.454    -392.291
  O       29.149     180.553    -391.914
  C       27.307     179.214    -393.030
  O       27.844     178.001    -392.515
  C       25.781     179.264    -392.767
  N       25.032     179.616    -393.967
  C       24.979     178.642    -394.956
  O       25.539     177.549    -394.866
  N       24.291     178.977    -396.089
  C       23.708     180.186    -396.341
  O       23.139     180.439    -397.396
  C       23.818     181.186    -395.267
  C       24.465     180.861    -394.145
  O       24.548     184.244    -390.271
  O       24.184     183.204    -387.923
  H       28.818     178.081    -392.551
  H       23.270     183.018    -388.244
  H       24.232     178.279    -396.813
  H       23.369     182.156    -395.434
  H       24.563     181.585    -393.339
  H       25.424     178.284    -392.426
  H       27.565     179.253    -394.091
  H       27.606     181.301    -392.962
  H       27.061     179.824    -390.347
  H       27.676     182.141    -389.966
  H       26.602     182.703    -391.269
  P       30.327     180.855    -392.948
  C       31.730     181.308    -390.808
  O       31.721     180.823    -392.146
  O       30.093     181.955    -393.932
  O       30.383     179.471    -393.778
  H       30.624     179.692    -394.698
  H       32.718     181.225    -390.405
  H       31.053     180.730    -390.214
  H       31.426     182.334    -390.798

 6  7  8  9  10  11  12  13  14  15  16  26  31  32  33  34  35 0
 6-311+G(2d,p)
 ****
 36  37 0
 6-311+G(2d,p)
 ****
 1  2  3  4  5  17  18  19  20  21  22  23  24  25 0
 3-21G
 ****
 27  28  29  30  38  39  40  41  42  43  44  45 0
 3-21G
 ****


