%nproc=1
%NoSave
%Mem=1900MB
#P OB98/GEN NMR

erre ene a

0 1
  C      201.941     469.140     -90.746
  O      201.730     467.851     -90.211
  H      202.835     469.113     -91.375
  H      202.098     469.866     -89.944
  H      201.090     469.451     -91.362
  P      200.402     467.575     -89.354
  C      201.696     467.932     -87.155
  O      200.589     468.329     -87.951
  C      201.428     468.257     -85.687
  O      202.350     467.541     -84.832
  C      201.604     469.732     -85.342
  O      200.502     470.494     -85.803
  C      201.738     469.650     -83.829
  O      200.456     469.499     -83.198
  C      202.577     468.359     -83.664
  N      204.008     468.633     -83.475
  C      204.400     468.993     -82.189
  O      203.615     469.088     -81.250
  N      205.732     469.284     -82.033
  C      206.661     469.335     -83.035
  O      207.783     469.814     -82.893
  C      206.207     468.876     -84.352
  C      204.918     468.565     -84.516
  O      199.979     466.147     -89.254
  O      199.288     468.466     -90.090
  H      198.741     467.888     -90.658
  H      199.976     468.816     -83.700
  H      206.016     469.592     -81.116
  H      206.929     468.839     -85.161
  H      204.551     468.251     -85.491
  H      202.225     467.781     -82.800
  H      202.202     470.542     -83.403
  H      202.544     470.109     -85.761
  H      200.409     467.919     -85.443
  H      202.585     468.483     -87.493
  H      201.870     466.859     -87.289
  P      200.668     472.044     -86.172
  C      200.517     472.935     -83.771
  O      201.342     472.780     -84.915
  O      199.427     472.706     -86.683
  O      201.826     472.072     -87.276
  H      201.514     472.558     -88.059
  H      201.066     473.435     -83.000
  H      200.208     471.972     -83.421
  H      199.655     473.515     -84.029

 6  7  8  9  10  11  12  13  14  15  16  27  31  32  33  34  35 0
 6-311+G(2d,p)
 ****
 36  37 0
 6-311+G(2d,p)
 ****
 1  2  3  4  5  17  18  19  20  21  22  23  24  25 0
 3-21G
 ****
 26  28  29  30  38  39  40  41  42  43  44  45 0
 3-21G
 ****


