%nproc=1
%NoSave
%Mem=1900MB
#P OB98/GEN NMR

erre ene a

0 1
  C     -269.757     171.170     612.771
  O     -269.775     172.598     612.789
  P     -270.046     173.491     614.085
  C     -267.655     174.410     614.661
  O     -268.704     173.507     614.964
  C     -267.226     175.263     615.877
  O     -266.742     174.386     616.927
  C     -266.057     176.174     615.502
  O     -266.307     177.413     614.870
  C     -265.239     176.280     616.772
  O     -265.578     177.424     617.557
  C     -265.582     174.995     617.530
  N     -261.203     173.579     619.767
  C     -261.979     174.690     620.000
  N     -261.512     175.572     620.909
  N     -263.111     174.934     619.385
  C     -263.413     174.023     618.433
  C     -262.721     172.887     618.092
  C     -261.495     172.600     618.822
  O     -260.781     171.620     618.666
  N     -263.323     172.205     617.070
  C     -264.374     172.940     616.773
  N     -264.480     174.052     617.584
  O     -271.325     173.222     614.796
  O     -270.118     174.991     613.496
  H     -266.545     177.426     617.691
  H     -270.761     175.480     614.057
  H     -260.359     173.430     620.283
  H     -265.089     172.722     615.993
  H     -265.853     175.208     618.574
  H     -264.169     176.374     616.540
  H     -260.600     175.508     621.330
  H     -265.428     175.619     614.793
  H     -261.970     176.487     620.935
  H     -268.083     175.795     616.296
  H     -268.012     175.048     613.853
  H     -266.790     173.860     614.269
  P     -265.982     177.778     613.334
  C     -268.404     177.469     612.552
  O     -267.055     177.032     612.420
  O     -264.634     176.974     613.025
  O     -265.810     179.235     613.062
  H     -264.210     177.330     612.217
  H     -269.065     176.711     612.133
  H     -268.541     178.403     612.003
  H     -268.657     177.623     613.606
  H     -269.553     170.828     611.778
  H     -270.709     170.797     613.088
  H     -268.996     170.815     613.434

 3  4  5  6  7  8  9  10  11  12  23  26  30  31 0
 6-311+G(2d,p)
 ****
 33  35  36  37  38 0
 6-311+G(2d,p)
 ****
 1  2  13  14  15  16  17  18  19  20  21  22  24  25 0
 3-21G
 ****
 27  28  29  32  34  39  40  41  42  43  44  45  46  47  48  49 0
 3-21G
 ****


