%nproc=1
%NoSave
%Mem=1900MB
#P OB98/GEN NMR

erre ene a

0 1
  C     -312.300     662.910     -22.371
  O     -313.373     662.484     -23.190
  H     -312.662     663.600     -21.601
  H     -311.864     662.036     -21.887
  H     -311.533     663.400     -22.982
  P     -314.218     663.643     -23.910
  C     -316.543     662.749     -23.186
  O     -315.652     663.004     -24.261
  C     -317.946     662.484     -23.713
  O     -318.495     663.683     -24.306
  C     -318.029     661.426     -24.811
  O     -317.975     660.105     -24.279
  C     -319.396     661.735     -25.404
  O     -320.431     661.148     -24.584
  C     -319.459     663.264     -25.311
  N     -321.312     664.862     -29.828
  C     -321.899     664.214     -28.790
  N     -321.340     663.805     -27.632
  C     -320.046     664.158     -27.578
  C     -319.316     664.826     -28.547
  C     -320.000     665.176     -29.723
  N     -319.398     665.831     -30.779
  N     -318.012     665.026     -28.137
  C     -317.954     664.489     -26.935
  N     -319.155     663.942     -26.556
  O     -313.518     663.782     -25.344
  O     -314.256     664.948     -23.188
  H     -320.234     660.189     -24.532
  H     -313.532     664.719     -25.617
  H     -322.954     663.986     -28.919
  H     -317.075     664.470     -26.306
  H     -320.442     663.609     -24.966
  H     -319.526     661.344     -26.418
  H     -317.251     661.587     -25.575
  H     -318.584     662.205     -22.864
  H     -316.572     663.612     -22.518
  H     -319.978     666.227     -31.497
  H     -318.411     666.068     -30.688
  H     -316.177     661.882     -22.624
  P     -316.667     659.229     -24.613
  C     -317.896     657.037     -25.283
  O     -317.086     657.704     -24.315
  O     -315.680     659.586     -23.411
  O     -316.042     659.493     -25.943
  H     -314.752     659.444     -23.687
  H     -318.094     656.038     -24.955
  H     -317.381     657.009     -26.220
  H     -318.820     657.564     -25.399

 6  7  8  9  10  11  12  13  14  15  25  28  32  33  34  35 0
 6-311+G(2d,p)
 ****
 36  39  40 0
 6-311+G(2d,p)
 ****
 1  2  3  4  5  16  17  18  19  20  21  22  23  24 0
 3-21G
 ****
 26  27  29  30  31  37  38  41  42  43  44  45  46  47  48 0
 3-21G
 ****


