%nproc=1
%NoSave
%Mem=1900MB
#P OB98/GEN NMR

erre ene a

0 1
  C      -13.854     301.444     156.868
  O      -13.625     302.430     157.877
  P      -14.849     302.905     158.801
  C      -14.399     301.393     160.830
  O      -14.436     302.730     160.344
  C      -13.318     301.187     161.902
  O      -11.989     301.202     161.310
  C      -13.325     302.241     163.018
  O      -12.959     301.573     164.235
  C      -12.223     303.191     162.576
  O      -11.758     304.019     163.640
  C      -11.210     302.193     162.009
  N      -10.230     302.824     161.141
  C       -9.200     303.549     161.748
  O       -9.212     303.719     162.972
  N       -8.211     304.082     160.962
  C       -8.325     304.030     159.673
  N       -7.314     304.555     158.919
  C       -9.489     303.432     158.987
  C      -10.382     302.829     159.771
  O      -16.181     302.334     158.437
  O      -14.839     304.501     158.615
  H      -11.286     303.459     164.292
  H      -15.760     304.829     158.642
  H       -9.580     303.484     157.910
  H      -11.264     302.361     159.371
  H      -10.675     301.673     162.821
  H      -12.606     303.848     161.783
  H      -14.298     302.723     163.155
  H      -13.460     300.191     162.343
  H       -6.534     304.981     159.403
  H      -14.207     300.707     159.993
  H       -7.304     304.506     157.908
  H      -15.389     301.123     161.217
  P      -14.114     301.160     165.270
  C      -14.983     298.858     164.425
  O      -14.166     299.556     165.339
  O      -15.439     301.496     164.429
  O      -14.128     301.895     166.574
  H      -16.179     301.666     165.056
  H      -14.687     297.802     164.425
  H      -14.880     299.245     163.413
  H      -16.035     298.925     164.740
  H      -12.939     301.245     156.349
  H      -14.585     301.805     156.176
  H      -14.209     300.543     157.324

 3  4  5  6  7  8  9  10  11  12  13  23  27  28  29  30  32 0
 6-311+G(2d,p)
 ****
 34  35 0
 6-311+G(2d,p)
 ****
 1  2  14  15  16  17  18  19  20  21  22  24  25  26 0
 3-21G
 ****
 31  33  36  37  38  39  40  41  42  43  44  45  46 0
 3-21G
 ****


