%nproc=1
%NoSave
%Mem=1900MB
#P OB98/GEN NMR

erre ene a

0 1
  C      120.237    -365.309    -890.170
  O      121.198    -364.777    -891.100
  P      122.632    -364.368    -890.500
  C      123.178    -362.276    -891.960
  O      123.465    -363.648    -891.670
  C      123.070    -362.061    -893.480
  O      121.794    -362.495    -893.960
  C      123.189    -360.612    -893.900
  O      124.541    -360.168    -893.940
  C      122.595    -360.661    -895.300
  O      123.608    -361.095    -896.250
  C      121.496    -361.724    -895.160
  N      117.199    -360.548    -897.580
  C      118.378    -361.106    -898.070
  N      118.384    -361.428    -899.380
  N      119.420    -361.347    -897.340
  C      119.267    -361.007    -896.030
  C      118.155    -360.423    -895.430
  C      116.998    -360.145    -896.270
  O      115.961    -359.619    -895.890
  N      118.359    -360.230    -894.090
  C      119.565    -360.707    -893.870
  N      120.165    -361.170    -895.020
  O      123.382    -365.782    -890.340
  O      122.564    -363.638    -889.200
  H      123.176    -361.127    -897.130
  H      124.048    -365.741    -889.630
  H      116.424    -360.379    -898.200
  H      120.060    -360.738    -892.890
  H      121.495    -362.419    -896.010
  H      122.236    -359.690    -895.640
  H      117.586    -361.342    -900.000
  H      122.563    -359.949    -893.260
  H      119.213    -361.879    -899.760
  H      123.863    -362.660    -893.960
  H      123.979    -361.645    -891.560
  H      122.253    -361.993    -891.440
  P      125.006    -359.125    -892.800
  C      125.696    -357.432    -894.660
  O      126.093    -358.182    -893.520
  O      125.877    -360.033    -891.810
  O      123.890    -358.421    -892.110
  H      125.840    -359.658    -890.910
  H      124.707    -356.992    -894.530
  H      125.682    -358.089    -895.540
  H      126.428    -356.630    -894.820
  H      119.330    -365.541    -890.688
  H      120.038    -364.584    -889.409
  H      120.629    -366.198    -889.722

 3  4  5  6  7  8  9  10  11  12  23  26  30  31  33  0
 6-311+G(2d,p)
 ****
 35  36  37  38 0
 6-311+G(2d,p)
 ****
 1  2  13  14  15  16  17  18  19  20  21  22  24  25  27  28  29 0
 3-21G
 ****
 32  34  39  40  41  42  43  44  45  46  47  48  49 0
 3-21G
 ****


