%nproc=1
%NoSave
%Mem=1900MB
#P OB98/GEN NMR

erre ene a

0 1
  C     -893.440    1021.113     536.140
  O     -893.700    1020.336     534.988
  H     -892.990    1022.062     535.834
  H     -892.750    1020.602     536.802
  H     -894.380    1021.327     536.674
  P     -894.260    1018.846     535.249
  C     -892.620    1017.786     533.529
  O     -893.960    1018.079     533.865
  C     -892.540    1017.315     532.068
  O     -893.350    1016.131     531.871
  C     -893.050    1018.332     531.066
  O     -892.120    1019.371     530.781
  C     -893.240    1017.421     529.847
  O     -891.940    1017.091     529.285
  C     -893.870    1016.181     530.528
  N     -895.350    1016.242     530.556
  C     -896.000    1015.992     529.320
  O     -895.350    1015.751     528.296
  N     -897.370    1016.060     529.272
  C     -898.020    1016.329     530.372
  N     -899.380    1016.386     530.262
  C     -897.400    1016.577     531.681
  C     -896.060    1016.506     531.692
  O     -895.850    1019.039     535.212
  O     -893.740    1018.161     536.475
  H     -891.550    1017.923     528.974
  H     -896.300    1018.155     535.223
  H     -897.980    1016.811     532.535
  H     -895.510    1016.701     532.611
  H     -893.560    1015.261     530.003
  H     -893.840    1017.856     529.051
  H     -894.020    1018.719     531.336
  H     -891.490    1017.030     531.873
  H     -899.790    1016.255     529.348
  H     -892.240    1017.000     534.194
  H     -900.000    1016.721     531.002
  H     -892.000    1018.679     533.651
  P     -892.740    1020.809     530.406
  C     -890.260    1021.108     529.659
  O     -891.500    1021.723     529.915
  O     -893.120    1021.416     531.837
  O     -893.910    1020.787     529.463
  H     -893.920    1021.984     531.780
  H     -889.553    1021.848     529.346
  H     -890.377    1020.377     528.887
  H     -889.907    1020.632     530.550

 6  7  8  9  10  11  12  13  14  15  16  26  30  31  32  33  35 0
 6-311+G(2d,p)
 ****
 37  38 0
 6-311+G(2d,p)
 ****
 1  2  3  4  5  17  18  19  20  21  22  23  24  25 0
 3-21G
 ****
 27  28  29  34  36  39  40  41  42  43  44  45  46 0
 3-21G
 ****


