%nproc=1
%NoSave
%Mem=1900MB
#P OB98/GEN NMR

erre ene a

0 1
  C      -17.093     -46.438      18.231
  O      -16.410     -47.673      18.109
  P      -17.199     -49.021      18.457
  C      -18.568     -49.023      16.246
  O      -18.593     -48.987      17.665
  C      -19.428     -50.177      15.727
  O      -20.756     -50.097      16.329
  C      -19.617     -50.178      14.203
  O      -19.694     -51.546      13.778
  C      -20.973     -49.518      14.040
  O      -21.580     -49.788      12.786
  C      -21.709     -50.112      15.246
  N      -22.924     -49.378      15.589
  C      -24.105     -50.108      15.688
  O      -24.180     -51.322      15.505
  N      -25.235     -49.381      15.950
  C      -25.316     -48.023      16.029
  O      -26.379     -47.424      16.149
  C      -24.039     -47.303      15.915
  C      -22.920     -48.001      15.705
  O      -17.624     -48.812      19.985
  O      -16.410     -50.273      18.262
  H      -22.450     -49.349      12.781
  H      -17.019     -49.297      20.576
  H      -26.098     -49.896      16.037
  H      -24.063     -46.224      15.995
  H      -21.967     -47.495      15.598
  H      -21.959     -51.163      15.055
  H      -20.863     -48.432      14.134
  H      -18.823     -49.654      13.662
  H      -18.980     -51.122      16.056
  H      -17.540     -49.163      15.910
  H      -18.925     -48.066      15.849
  P      -19.154     -51.908      12.309
  C      -16.671     -51.716      13.107
  O      -17.674     -51.306      12.202
  O      -20.039     -50.918      11.413
  O      -19.315     -53.348      11.948
  H      -20.108     -50.028      11.797
  H      -16.791     -52.766      13.392
  H      -16.716     -51.093      14.002
  H      -15.695     -51.589      12.635
  H      -16.434     -45.638      17.965
  H      -17.420     -46.309      19.242
  H      -17.941     -46.434      17.579

 3  4  5  6  7  8  9  10  11  12  13  23  28  29  30  31  32 0
 6-311+G(2d,p)
 ****
 33  34 0
 6-311+G(2d,p)
 ****
 1  2  14  15  16  17  18  19  20  21  22  24  25  26 0
 3-21G
 ****
 27  35  36  37  38  39  40  41  42  43  44  45 0
 3-21G
 ****


