%nproc=1
%NoSave
%Mem=1900MB
#P OB98/GEN NMR

erre ene a

0 1
  C      480.354     379.272     206.176
  O      481.671     379.575     206.594
  H      480.291     378.202     205.968
  H      480.118     379.824     205.263
  H      479.636     379.523     206.963
  P      481.930     381.069     207.129
  C      482.982     381.816     204.844
  O      483.138     381.633     206.240
  C      484.322     382.170     204.197
  O      484.718     383.491     204.636
  C      485.454     381.204     204.548
  O      486.287     381.038     203.401
  C      486.217     381.930     205.643
  O      487.568     381.483     205.739
  C      486.032     383.395     205.226
  N      486.179     384.315     206.351
  C      487.170     385.300     206.233
  O      487.875     385.344     205.225
  N      487.361     386.177     207.270
  C      486.675     386.040     208.362
  N      486.926     386.930     209.361
  C      485.658     384.986     208.551
  C      485.458     384.175     207.515
  O      482.602     380.790     208.554
  O      480.709     381.923     207.174
  H      488.048     382.089     206.345
  H      483.242     380.058     208.549
  H      485.122     384.904     209.488
  H      484.725     383.378     207.563
  H      486.764     383.670     204.455
  H      485.735     381.751     206.613
  H      485.102     380.226     204.887
  H      484.179     382.231     203.112
  H      487.645     387.625     209.200
  H      482.261     382.613     204.642
  H      486.489     386.884     210.271
  H      482.591     380.885     204.423
  P      486.410     379.594     202.723
  C      488.893     379.352     203.369
  O      487.941     379.333     202.316
  O      485.415     379.292     201.651
  O      486.216     378.594     203.968
  H      485.688     377.832     203.660
  H      489.869     379.166     202.971
  H      488.649     378.594     204.084
  H      488.878     380.310     203.846

 6  7  8  9  10  11  12  13  14  15  16  26  30  31  32  33  35 0
 6-311+G(2d,p)
 ****
 37  38 0
 6-311+G(2d,p)
 ****
 1  2  3  4  5  17  18  19  20  21  22  23  24  25 0
 3-21G
 ****
 27  28  29  34  36  39  40  41  42  43  44  45  46 0
 3-21G
 ****


