%nproc=1
%NoSave
%Mem=1900MB
#P OB98/GEN NMR

erre ene a

0 1
  C      159.261     -69.896    -164.570
  O      158.851     -68.576    -164.270
  H      160.314     -70.007    -164.297
  H      159.156     -70.077    -165.645
  H      158.672     -70.628    -164.007
  P      157.271     -68.289    -164.279
  C      157.042     -67.259    -166.654
  O      156.801     -68.380    -165.813
  C      155.786     -66.903    -167.437
  O      155.653     -67.751    -168.601
  C      154.485     -67.056    -166.642
  O      154.224     -65.913    -165.839
  C      153.477     -67.173    -167.772
  O      153.224     -65.864    -168.335
  C      154.238     -68.034    -168.792
  N      150.804     -71.770    -168.910
  C      150.631     -70.406    -169.034
  N      149.364     -69.969    -169.206
  N      151.612     -69.537    -168.992
  C      152.822     -70.115    -168.788
  C      153.118     -71.451    -168.647
  C      152.028     -72.399    -168.707
  O      152.130     -73.619    -168.619
  N      154.463     -71.659    -168.454
  C      154.975     -70.442    -168.465
  N      154.020     -69.470    -168.660
  O      157.196     -66.719    -163.948
  O      156.470     -69.088    -163.303
  H      154.069     -65.539    -168.696
  H      156.941     -66.606    -163.014
  H      150.011     -72.389    -168.942
  H      156.023     -70.209    -168.345
  H      153.989     -67.771    -169.832
  H      152.515     -67.567    -167.443
  H      148.558     -70.577    -169.226
  H      154.483     -67.983    -166.049
  H      149.213     -68.972    -169.301
  H      155.891     -65.869    -167.801
  H      157.853     -67.506    -167.358
  H      157.355     -66.408    -166.037
  P      153.558     -66.134    -164.395
  C      151.073     -65.928    -165.104
  O      152.110     -66.783    -164.639
  O      153.231     -64.642    -163.926
  O      154.421     -66.841    -163.397
  H      153.812     -64.392    -163.177
  H      150.171     -66.492    -165.221
  H      151.354     -65.506    -166.046
  H      150.913     -65.143    -164.395

 6  7  8  9  10  11  12  13  14  15  26  29  33  34 0
 6-311+G(2d,p)
 ****
 36  38  39  40  41 0
 6-311+G(2d,p)
 ****
 1  2  3  4  5  16  17  18  19  20  21  22  23  24  25 0
 3-21G
 ****
 27  28  30  31  32  35  37  42  43  44  45  46  47 0
 3-21G
 ****
 48  49 0
 3-21G
 ****


