%nproc=1
%NoSave
%Mem=1900MB
#P OB98/GEN NMR

erre ene a

0 1
  C     -110.630     -92.476    -101.464
  O     -110.288     -91.112    -101.639
  H     -111.640     -92.638    -101.854
  H     -110.616     -92.731    -100.402
  H     -109.930     -93.118    -102.011
  P     -108.775     -90.700    -101.296
  C     -109.983     -88.694    -100.094
  O     -108.818     -89.183    -100.744
  C     -109.584     -87.705     -98.993
  O     -109.067     -88.369     -97.840
  C     -108.464     -86.750     -99.393
  O     -108.886     -85.779    -100.331
  C     -108.100     -86.176     -98.041
  O     -109.019     -85.161     -97.633
  C     -108.220     -87.435     -97.125
  N     -106.924     -88.003     -96.782
  C     -106.093     -87.172     -96.020
  O     -106.459     -86.058     -95.676
  N     -104.831     -87.647     -95.696
  C     -104.467     -88.830     -96.066
  N     -103.208     -89.225     -95.716
  C     -105.326     -89.744     -96.850
  C     -106.527     -89.252     -97.177
  O     -108.125     -90.530    -102.736
  O     -108.054     -91.632    -100.388
  H     -109.033     -84.493     -98.354
  H     -108.611     -89.936    -103.330
  H     -104.986     -90.729     -97.133
  H     -107.213     -89.861     -97.750
  H     -108.744     -87.171     -96.192
  H     -107.102     -85.723     -98.049
  H     -107.608     -87.320     -99.772
  H     -110.487     -87.156     -98.692
  H     -102.642     -88.567     -95.192
  H     -110.574     -89.516     -99.672
  H     -102.792     -90.108     -95.987
  H     -110.595     -88.192    -100.847
  P     -108.365     -85.839    -101.854
  C     -108.646     -83.291    -102.180
  O     -109.048     -84.596    -102.612
  O     -108.537     -87.165    -102.534
  O     -106.837     -85.375    -101.747
  H     -106.703     -84.472    -101.371
  H     -109.164     -82.550    -102.753
  H     -107.591     -83.178    -102.321
  H     -108.883     -83.170    -101.144

 6  7  8  9  10  11  12  13  14  15  16  26  30  31  32  33  35 0
 6-311+G(2d,p)
 ****
 37  38 0
 6-311+G(2d,p)
 ****
 1  2  3  4  5  17  18  19  20  21  22  23  24  25 0
 3-21G
 ****
 27  28  29  34  36  39  40  41  42  43  44  45  46 0
 3-21G
 ****


