%nproc=1
%NoSave
%Mem=1900MB
#P OB98/GEN NMR

erre ene a

0 1
  C     -247.773     192.259    -135.222
  O     -246.429     192.733    -135.337
  P     -246.176     194.198    -135.946
  C     -245.719     193.122    -138.246
  O     -245.260     194.039    -137.259
  C     -245.122     193.450    -139.612
  O     -245.638     194.694    -140.137
  C     -243.608     193.622    -139.583
  O     -242.958     192.367    -139.464
  C     -243.364     194.363    -140.894
  O     -243.316     193.446    -142.000
  C     -244.625     195.258    -140.993
  N     -244.364     196.652    -140.671
  C     -243.775     197.415    -141.683
  O     -243.471     196.898    -142.760
  N     -243.536     198.746    -141.444
  C     -243.841     199.268    -140.292
  N     -243.583     200.595    -140.118
  C     -244.452     198.492    -139.191
  C     -244.670     197.205    -139.447
  O     -245.715     195.232    -134.967
  O     -247.607     194.579    -136.559
  H     -242.831     193.915    -142.712
  H     -247.716     195.547    -136.520
  H     -244.698     198.969    -138.254
  H     -245.118     196.555    -138.692
  H     -245.031     195.221    -142.018
  H     -242.414     194.905    -140.880
  H     -243.333     194.265    -138.737
  H     -245.394     192.640    -140.308
  H     -243.156     201.096    -140.877
  H     -246.815     193.161    -138.296
  H     -243.831     201.098    -139.274
  H     -245.461     192.105    -137.934
  P     -242.969     191.659    -138.024
  C     -240.384     191.391    -138.120
  O     -241.640     190.769    -137.914
  O     -244.133     190.563    -138.169
  O     -243.234     192.582    -136.875
  H     -244.583     190.457    -137.313
  H     -239.601     190.756    -137.703
  H     -240.344     192.370    -137.631
  H     -240.216     191.514    -139.194
  H     -247.769     191.275    -134.802
  H     -248.226     192.231    -136.191
  H     -248.330     192.916    -134.587

 3  4  5  6  7  8  9  10  11  12  13  23  27  28  29  30  32 0
 6-311+G(2d,p)
 ****
 34  35 0
 6-311+G(2d,p)
 ****
 1  2  14  15  16  17  18  19  20  21  22  24  25  26 0
 3-21G
 ****
 31  33  36  37  38  39  40  41  42  43  44  45  46 0
 3-21G
 ****


