%nproc=1
%NoSave
%Mem=1900MB
#P OB98/GEN NMR

erre ene a

0 1
  C       37.596      16.159      18.613
  O       36.895      16.646      17.481
  P       35.339      16.313      17.249
  C       36.028      14.305      15.771
  O       35.289      14.750      16.896
  C       35.906      12.787      15.623
  O       36.222      12.170      16.898
  C       34.512      12.302      15.206
  O       34.694      11.158      14.364
  C       33.885      11.900      16.526
  O       32.813      10.983      16.366
  C       35.104      11.337      17.265
  N       34.920      11.311      18.711
  C       35.753      10.477      19.457
  O       36.597       9.770      18.908
  N       35.613      10.460      20.823
  C       34.668      11.147      21.385
  N       34.609      11.143      22.744
  C       33.698      11.956      20.624
  C       33.897      12.009      19.311
  O       34.651      17.196      16.268
  O       34.707      16.342      18.714
  H       32.474      10.749      17.251
  H       34.447      17.252      19.004
  H       32.909      12.489      21.137
  H       33.249      12.597      18.676
  H       35.332      10.327      16.903
  H       33.494      12.790      17.031
  H       33.944      13.063      14.663
  H       36.660      12.450      14.901
  H       35.391      10.721      23.233
  H       37.079      14.561      15.926
  H       34.134      11.883      23.248
  H       35.676      14.819      14.871
  P       33.450      10.658      13.481
  C       33.205       8.435      14.796
  O       32.595       9.633      14.365
  O       34.172       9.674      12.435
  O       32.692      11.712      12.744
  H       33.633       9.623      11.624
  H       32.481       7.868      15.387
  H       34.073       8.651      15.424
  H       33.507       7.829      13.938
  H       38.612      16.494      18.575
  H       37.573      15.089      18.614
  H       37.133      16.526      19.505

 3  4  5  6  7  8  9  10  11  12  13  23  27  28  29  30  32 0
 6-311+G(2d,p)
 ****
 34  35 0
 6-311+G(2d,p)
 ****
 1  2  14  15  16  17  18  19  20  21  22  24  25  26 0
 3-21G
 ****
 31  33  36  37  38  39  40  41  42  43  44  45  46 0
 3-21G
 ****


