%nproc=1
%NoSave
%Mem=1900MB
#P OB98/GEN NMR

erre ene a

0 1
  C      -64.195     446.953    -146.204
  O      -65.244     447.718    -145.631
  P      -66.411     446.922    -144.862
  C      -65.429     447.510    -142.524
  O      -65.804     446.488    -143.442
  C      -66.363     447.504    -141.317
  O      -66.307     446.233    -140.634
  C      -66.023     448.544    -140.263
  O      -66.518     449.834    -140.591
  C      -66.758     447.989    -139.055
  O      -68.156     448.328    -139.131
  C      -66.565     446.477    -139.229
  N      -64.899     445.660    -134.527
  C      -66.153     446.035    -134.962
  N      -67.075     446.282    -134.007
  N      -66.474     446.151    -136.221
  C      -65.449     445.879    -137.067
  C      -64.164     445.497    -136.750
  C      -63.817     445.386    -135.352
  O      -62.711     445.111    -134.900
  N      -63.407     445.304    -137.874
  C      -64.231     445.561    -138.871
  N      -65.467     445.961    -138.434
  O      -66.505     445.538    -145.661
  O      -67.721     447.633    -144.815
  H      -68.580     447.929    -138.346
  H      -67.349     445.093    -145.460
  H      -64.697     445.588    -133.537
  H      -63.970     445.493    -139.921
  H      -67.468     445.914    -138.966
  H      -66.387     448.388    -138.108
  H      -66.872     446.271    -133.019
  H      -64.944     448.563    -140.054
  H      -67.985     446.619    -134.303
  H      -67.389     447.647    -141.682
  H      -65.482     448.478    -143.025
  H      -64.393     447.343    -142.206
  P      -65.422     450.962    -140.935
  C      -66.153     451.222    -143.413
  O      -65.146     450.822    -142.507
  O      -64.095     450.389    -140.254
  O      -65.773     452.328    -140.444
  H      -63.488     451.123    -140.026
  H      -65.711     451.315    -144.411
  H      -66.573     452.191    -143.132
  H      -66.946     450.470    -143.449
  H      -63.495     447.608    -146.680
  H      -64.601     446.278    -146.928
  H      -63.699     446.397    -145.436

 3  4  5  6  7  8  9  10  11  12  23  26  30  31 0
 6-311+G(2d,p)
 ****
 33  35  36  37  38 0
 6-311+G(2d,p)
 ****
 1  2  13  14  15  16  17  18  19  20  21  22  24  25 0
 3-21G
 ****
 27  28  29  32  34  39  40  41  42  43  44  45  46  47  48  49 0
 3-21G
 ****


