%nproc=1
%NoSave
%Mem=1900MB
#P OB98/GEN NMR

erre ene a

0 1
  C      441.304    -294.424      37.977
  O      442.152    -294.960      36.944
  P      441.761    -294.711      35.401
  C      441.687    -297.232      34.692
  O      442.282    -295.952      34.531
  C      442.531    -298.299      33.991
  O      443.745    -298.555      34.740
  C      441.850    -299.657      33.863
  O      440.891    -299.666      32.822
  C      443.042    -300.569      33.594
  O      443.411    -300.542      32.199
  C      444.146    -299.919      34.459
  N      444.407    -300.664      35.686
  C      445.230    -301.778      35.568
  O      445.681    -302.174      34.490
  N      445.502    -302.448      36.734
  C      444.983    -302.166      37.964
  O      445.241    -302.820      38.972
  C      444.053    -301.021      38.008
  C      443.803    -300.338      36.890
  O      442.786    -293.554      34.979
  O      440.351    -294.283      35.153
  H      444.100    -301.225      32.081
  H      442.400    -293.011      34.268
  H      446.122    -303.242      36.676
  H      443.598    -300.773      38.967
  H      443.123    -299.496      36.908
  H      445.077    -299.843      33.884
  H      442.838    -301.615      33.845
  H      441.396    -299.934      34.816
  H      442.816    -297.914      33.003
  H      440.684    -297.226      34.250
  H      441.596    -297.448      35.763
  P      439.488    -300.401      33.145
  C      439.587    -302.037      31.099
  O      438.955    -300.937      31.729
  O      438.562    -299.149      33.487
  O      439.601    -301.418      34.233
  H      438.798    -298.356      32.966
  H      439.960    -302.762      31.839
  H      440.418    -301.686      30.488
  H      438.853    -302.543      30.457
  H      441.705    -294.679      38.936
  H      440.321    -294.836      37.881
  H      441.256    -293.359      37.882

 3  4  5  6  7  8  9  10  11  12  13  23  28  29  30  31  32 0
 6-311+G(2d,p)
 ****
 33  34 0
 6-311+G(2d,p)
 ****
 1  2  14  15  16  17  18  19  20  21  22  24  25  26 0
 3-21G
 ****
 27  35  36  37  38  39  40  41  42  43  44  45 0
 3-21G
 ****


