%nproc=1
%NoSave
%Mem=1900MB
#P OB98/GEN NMR

erre ene a

0 1
  C       75.005     192.725    -327.614
  O       74.854     193.881    -326.812
  H       74.163     192.669    -328.307
  H       75.011     191.827    -326.994
  H       75.931     192.784    -328.197
  P       75.971     194.188    -325.706
  C       74.452     193.622    -323.692
  O       75.606     193.264    -324.444
  C       73.994     192.438    -322.843
  O       73.598     191.340    -323.687
  C       75.067     191.901    -321.901
  O       75.147     192.699    -320.732
  C       74.527     190.505    -321.638
  O       73.436     190.574    -320.700
  C       74.007     190.108    -323.029
  N       75.483     185.671    -324.996
  C       74.459     185.953    -324.111
  N       73.757     184.895    -323.652
  N       74.166     187.161    -323.698
  C       75.000     188.107    -324.185
  C       76.061     187.947    -325.049
  C       76.342     186.615    -325.544
  O       77.229     186.326    -326.337
  N       76.716     189.136    -325.265
  C       76.031     190.016    -324.559
  N       74.987     189.440    -323.874
  O       76.184     195.631    -325.357
  O       77.295     193.508    -326.291
  H       73.162     189.655    -320.520
  H       77.818     194.145    -326.810
  H       75.671     184.720    -325.255
  H       76.242     191.077    -324.519
  H       73.129     189.453    -322.976
  H       75.270     189.828    -321.217
  H       74.113     183.950    -323.711
  H       76.039     191.809    -322.400
  H       73.032     185.075    -322.969
  H       73.103     192.755    -322.283
  H       73.670     193.910    -324.404
  H       74.670     194.476    -323.042
  P       76.535     192.880    -319.942
  C       76.007     190.783    -318.530
  O       76.914     191.408    -319.428
  O       76.522     193.929    -318.883
  O       77.618     193.132    -321.092
  H       77.719     194.087    -321.336
  H       76.376     189.814    -318.268
  H       75.051     190.685    -319.000
  H       75.912     191.379    -317.647

 6  7  8  9  10  11  12  13  14  15  26  29  33  34 0
 6-311+G(2d,p)
 ****
 36  38  39  40  41 0
 6-311+G(2d,p)
 ****
 1  2  3  4  5  16  17  18  19  20  21  22  23  24  25 0
 3-21G
 ****
 27  28  30  31  32  35  37  42  43  44  45  46  47 0
 3-21G
 ****
 48  49 0
 3-21G
 ****


