%nproc=1
%NoSave
%Mem=1900MB
#P OB98/GEN NMR

erre ene a

0 1
  C       -0.713      48.666     411.272
  O       -0.790      47.511     412.111
  P       -1.682      47.573     413.444
  C        0.233      47.548     415.173
  O       -0.826      48.298     414.598
  C        0.762      48.231     416.445
  O        1.539      47.291     417.247
  C        1.685      49.423     416.133
  O        1.550      50.442     417.133
  C        3.070      48.820     416.267
  O        4.063      49.822     416.485
  C        2.849      47.859     417.436
  N        7.252      46.374     419.613
  C        6.460      47.456     419.825
  N        5.292      47.773     419.221
  C        4.946      46.830     418.329
  C        5.640      45.668     418.011
  C        6.852      45.457     418.693
  N        7.670      44.377     418.459
  N        4.982      44.947     417.036
  C        3.929      45.682     416.737
  N        3.846      46.812     417.512
  O       -2.328      46.292     413.851
  O       -2.781      48.684     413.084
  H        4.879      49.368     416.749
  H       -3.653      48.389     413.414
  H        6.817      48.157     420.569
  H        3.206      45.450     415.966
  H        2.851      48.385     418.395
  H        3.327      48.273     415.346
  H        1.524      49.872     415.143
  H       -0.087      48.558     417.054
  H        1.040      47.434     414.446
  H        8.569      44.366     418.913
  H        7.463      43.771     417.676
  H       -0.117      46.527     415.386
  P        0.498      51.620     416.805
  C        2.320      53.204     415.800
  O        1.141      52.458     415.599
  O        0.085      52.403     418.011
  O       -0.702      50.804     416.129
  H       -0.437      50.203     415.410
  H        2.665      53.593     414.843
  H        3.112      52.582     416.230
  H        2.119      54.054     416.466
  H       -0.083      48.456     410.433
  H       -0.306      49.484     411.828
  H       -1.693      48.922     410.926

 3  4  5  6  7  8  9  10  11  12  22  25  29  30  31  32 0
 6-311+G(2d,p)
 ****
 33  36  37 0
 6-311+G(2d,p)
 ****
 1  2  13  14  15  16  17  18  19  20  21  23  24  26 0
 3-21G
 ****
 27  28  34  35  38  39  40  41  42  43  44  45  46  47  48 0
 3-21G
 ****


