%nproc=1
%NoSave
%Mem=1900MB
#P OB98/GEN NMR

erre ene a

0 1
  C      123.671      75.244     767.081
  O      123.122      75.456     765.780
  P      123.891      76.461     764.807
  C      122.470      78.521     765.499
  O      123.751      77.925     765.459
  C      122.574      80.032     765.371
  O      123.613      80.553     766.249
  C      122.967      80.520     763.975
  O      121.858      80.574     763.091
  C      123.465      81.932     764.282
  O      122.349      82.825     764.433
  C      124.175      81.727     765.633
  N      128.513      84.055     764.374
  C      127.240      84.573     764.588
  N      127.106      85.905     764.375
  N      126.207      83.880     764.975
  C      126.503      82.554     765.139
  C      127.702      81.911     764.969
  C      128.831      82.710     764.533
  O      129.967      82.285     764.275
  N      127.604      80.574     765.239
  C      126.344      80.394     765.578
  N      125.617      81.576     765.487
  O      122.945      76.537     763.517
  O      125.288      76.045     764.444
  H      122.705      83.675     764.771
  H      123.436      76.901     762.751
  H      129.270      84.629     764.074
  H      125.903      79.457     765.881
  H      124.006      82.575     766.309
  H      124.099      82.345     763.502
  H      127.846      86.500     764.020
  H      123.798      79.927     763.556
  H      126.180      86.323     764.457
  H      121.622      80.486     765.683
  H      121.979      78.263     766.441
  H      121.850      78.118     764.685
  P      122.150      80.236     761.542
  C      122.631      82.680     760.810
  O      123.138      81.383     761.043
  O      120.756      80.589     760.829
  O      122.575      78.821     761.303
  H      120.656      80.063     760.029
  H      123.455      83.386     760.736
  H      121.976      83.001     761.631
  H      122.060      82.694     759.871
  H      123.057      74.553     767.619
  H      123.707      76.174     767.609
  H      124.660      74.846     766.990

 3  4  5  6  7  8  9  10  11  12  23  26  30  31 0
 6-311+G(2d,p)
 ****
 33  35  36  37  38 0
 6-311+G(2d,p)
 ****
 1  2  13  14  15  16  17  18  19  20  21  22  24  25 0
 3-21G
 ****
 27  28  29  32  34  39  40  41  42  43  44  45  46  47  48  49 0
 3-21G
 ****


