%nproc=1
%NoSave
%Mem=1900MB
#P OB98/GEN NMR

erre ene a

0 1
  C      -45.217     140.559     -95.962
  O      -45.553     139.862     -94.777
  H      -44.808     141.536     -95.690
  H      -46.109     140.710     -96.576
  H      -44.464     140.003     -96.527
  P      -46.232     138.420     -94.971
  C      -48.496     139.386     -94.152
  O      -47.502     138.385     -93.986
  C      -49.173     139.694     -92.819
  O      -50.010     138.594     -92.405
  C      -48.205     139.968     -91.673
  O      -47.770     141.319     -91.687
  C      -49.074     139.643     -90.467
  O      -49.958     140.742     -90.155
  C      -49.873     138.428     -90.964
  N      -50.253     134.269     -88.125
  C      -50.997     135.430     -88.109
  N      -51.977     135.511     -87.180
  N      -50.800     136.434     -88.922
  C      -49.753     136.242     -89.762
  C      -48.936     135.138     -89.873
  C      -49.205     134.013     -89.002
  O      -48.633     132.924     -89.025
  N      -47.996     135.314     -90.856
  C      -48.221     136.534     -91.310
  N      -49.274     137.138     -90.674
  O      -45.193     137.422     -94.267
  O      -46.494     138.019     -96.382
  H      -50.454     140.533     -89.344
  H      -45.155     136.595     -94.786
  H      -50.471     133.515     -87.498
  H      -47.662     137.015     -92.103
  H      -50.886     138.405     -90.545
  H      -48.474     139.468     -89.574
  H      -51.986     134.918     -86.361
  H      -47.353     139.277     -91.702
  H      -52.472     136.392     -87.121
  H      -49.834     140.558     -92.975
  H      -49.245     139.024     -94.864
  H      -48.032     140.295     -94.552
  P      -46.267     141.634     -91.230
  C      -46.827     143.078     -89.143
  O      -46.273     143.039     -90.451
  O      -45.538     141.978     -92.615
  O      -45.579     140.513     -90.527
  H      -44.970     141.230     -92.883
  H      -46.760     144.074     -88.757
  H      -46.285     142.411     -88.506
  H      -47.854     142.779     -89.181

 6  7  8  9  10  11  12  13  14  15  26  29  33  34 0
 6-311+G(2d,p)
 ****
 36  38  39  40  41 0
 6-311+G(2d,p)
 ****
 1  2  3  4  5  16  17  18  19  20  21  22  23  24  25 0
 3-21G
 ****
 27  28  30  31  32  35  37  42  43  44  45  46  47 0
 3-21G
 ****
 48  49 0
 3-21G
 ****


