%nproc=1
%NoSave
%Mem=1900MB
#P OB98/GEN NMR

erre ene a

0 1
  C       77.543    -507.864     351.752
  O       78.608    -507.145     351.168
  H       77.634    -507.803     352.838
  H       77.610    -508.915     351.453
  H       76.574    -507.454     351.454
  P       78.488    -506.699     349.636
  C       79.823    -507.193     347.486
  O       79.435    -507.665     348.765
  C       81.239    -507.650     347.112
  O       82.194    -507.102     348.050
  C       81.394    -509.164     347.183
  O       80.987    -509.872     346.026
  C       82.906    -509.313     347.407
  O       83.615    -509.288     346.158
  C       83.242    -508.078     348.241
  N       86.394    -509.271     352.082
  C       86.680    -509.132     350.739
  N       87.951    -509.395     350.362
  N       85.787    -508.778     349.845
  C       84.539    -508.634     350.355
  C       84.134    -508.765     351.670
  C       85.143    -509.102     352.653
  O       84.938    -509.248     353.857
  N       82.787    -508.548     351.799
  C       82.362    -508.358     350.566
  N       83.396    -508.373     349.655
  O       79.280    -505.304     349.585
  O       77.087    -506.542     349.120
  H       83.492    -508.409     345.753
  H       78.941    -504.756     348.856
  H       87.129    -509.517     352.729
  H       81.329    -508.174     350.277
  H       84.181    -507.609     347.908
  H       83.149    -510.259     347.890
  H       88.639    -509.781     350.993
  H       80.881    -509.565     348.061
  H       88.132    -509.564     349.371
  H       81.500    -507.258     346.122
  H       79.776    -506.106     347.516
  H       79.108    -507.527     346.722
  P       80.163    -511.238     346.164
  C       80.699    -513.636     347.041
  O       81.174    -512.332     346.760
  O       79.969    -511.690     344.638
  O       78.863    -511.116     346.878
  H       79.089    -511.407     344.322
  H       81.499    -514.231     347.429
  H       80.327    -514.081     346.142
  H       79.912    -513.581     347.764

 6  7  8  9  10  11  12  13  14  15  26  29  33  34 0
 6-311+G(2d,p)
 ****
 36  38  39  40  41 0
 6-311+G(2d,p)
 ****
 1  2  3  4  5  16  17  18  19  20  21  22  23  24  25 0
 3-21G
 ****
 27  28  30  31  32  35  37  42  43  44  45  46  47 0
 3-21G
 ****
 48  49 0
 3-21G
 ****


