%nproc=1
%NoSave
%Mem=1900MB
#P OB98/GEN NMR

erre ene a

0 1
  C     -935.622     213.098    -310.056
  O     -934.879     212.137    -309.328
  H     -935.642     214.035    -309.478
  H     -936.651     212.756    -310.200
  H     -935.151     213.294    -311.021
  P     -934.746     210.659    -309.926
  C     -932.521     210.599    -308.610
  O     -933.682     209.882    -309.001
  C     -931.864     209.941    -307.392
  O     -932.855     209.917    -306.327
  C     -931.420     208.495    -307.675
  O     -930.051     208.239    -307.343
  C     -932.480     207.647    -306.957
  O     -932.055     206.365    -306.558
  C     -932.926     208.568    -305.814
  N     -934.279     208.292    -305.329
  C     -934.396     207.433    -304.221
  O     -933.435     206.919    -303.621
  N     -935.663     207.167    -303.798
  C     -936.817     207.649    -304.357
  O     -937.933     207.400    -303.940
  C     -936.637     208.530    -305.540
  C     -935.400     208.792    -305.962
  O     -934.490     210.561    -311.394
  O     -936.143     209.960    -309.528
  H     -931.834     205.869    -307.359
  H     -936.719     209.923    -310.316
  H     -935.765     206.578    -302.999
  H     -937.520     208.912    -306.007
  H     -935.229     209.444    -306.810
  H     -932.252     208.492    -304.968
  H     -933.330     207.502    -307.658
  H     -931.464     208.279    -308.737
  H     -931.032     210.563    -307.059
  H     -932.819     211.627    -308.369
  H     -931.813     210.611    -309.449
  P     -928.903     207.940    -308.401
  C     -926.677     208.952    -307.452
  O     -927.511     207.813    -307.601
  O     -928.906     208.790    -309.639
  O     -929.216     206.408    -308.854
  H     -928.947     206.340    -309.787
  H     -925.802     208.683    -306.898
  H     -927.210     209.718    -306.928
  H     -926.391     209.313    -308.418

 6  7  8  9  10  11  12  13  14  15  16  26  31  32  33  34  35 0
 6-311+G(2d,p)
 ****
 36  37 0
 6-311+G(2d,p)
 ****
 1  2  3  4  5  17  18  19  20  21  22  23  24  25 0
 3-21G
 ****
 27  28  29  30  38  39  40  41  42  43  44  45 0
 3-21G
 ****


