%nproc=1
%NoSave
%Mem=1900MB
#P OB98/GEN NMR

erre ene a

0 1
  C        2.998      20.521     112.682
  O        1.968      21.494     112.482
  P        2.425      22.916     111.899
  C        3.655      25.024     112.786
  O        3.113      23.745     113.086
  C        3.812      25.842     114.068
  O        2.547      26.038     114.735
  C        4.712      25.178     115.102
  O        6.077      25.291     114.738
  C        4.324      25.951     116.358
  O        4.984      27.228     116.387
  C        2.814      26.155     116.154
  N        1.608      24.343     120.784
  C        2.461      25.313     120.388
  N        2.727      25.735     119.134
  C        1.997      25.052     118.238
  C        1.085      24.041     118.492
  C        0.901      23.683     119.838
  N        0.043      22.685     120.240
  N        0.532      23.577     117.316
  C        1.118      24.280     116.368
  N        2.002      25.193     116.876
  O        1.039      23.677     111.656
  O        3.228      22.819     110.644
  H        4.625      27.758     115.647
  H        0.859      23.746     110.701
  H        3.003      25.817     121.183
  H        0.936      24.165     115.306
  H        2.484      27.152     116.466
  H        4.584      25.427     117.282
  H        4.443      24.120     115.215
  H        4.220      26.825     113.797
  H        3.006      25.556     112.086
  H        0.029      22.437     121.217
  H       -0.423      22.128     119.538
  H        4.618      24.889     112.282
  P        6.757      24.043     113.995
  C        7.511      21.720     114.791
  O        6.863      22.927     115.148
  O        8.268      24.539     113.849
  O        6.083      23.615     112.737
  H        8.600      24.936     114.675
  H        7.544      21.070     115.668
  H        8.533      21.923     114.459
  H        6.953      21.216     113.998
  H        2.568      19.622     113.072
  H        3.718      20.902     113.376
  H        3.477      20.312     111.748

 3  4  5  6  7  8  9  10  11  12  22  25  29  30  31  32 0
 6-311+G(2d,p)
 ****
 33  36  37 0
 6-311+G(2d,p)
 ****
 1  2  13  14  15  16  17  18  19  20  21  23  24  26 0
 3-21G
 ****
 27  28  34  35  38  39  40  41  42  43  44  45  46  47  48 0
 3-21G
 ****


