%nproc=1
%NoSave
%Mem=1900MB
#P OB98/GEN NMR

erre ene a

0 1
  C      -30.656      18.576      71.897
  O      -30.189      18.170      70.626
  H      -31.557      18.006      72.139
  H      -30.905      19.641      71.888
  H      -29.897      18.380      72.658
  P      -28.925      18.972      70.043
  C      -30.715      20.735      69.338
  O      -29.455      20.485      69.942
  C      -30.977      22.236      69.293
  O      -31.053      22.779      70.629
  C      -29.887      23.037      68.590
  O      -29.977      22.972      67.177
  C      -30.192      24.429      69.113
  O      -31.343      24.959      68.431
  C      -30.513      24.128      70.595
  N      -29.344      24.235      71.469
  C      -28.778      25.508      71.607
  O      -29.249      26.471      71.005
  N      -27.665      25.655      72.401
  C      -27.167      24.626      73.013
  N      -26.057      24.826      73.774
  C      -27.741      23.272      72.909
  C      -28.814      23.150      72.131
  O      -28.867      18.521      68.509
  O      -27.642      18.802      70.784
  H      -31.506      25.847      68.799
  H      -28.192      19.058      68.027
  H      -27.284      22.442      73.429
  H      -29.289      22.183      72.005
  H      -31.293      24.800      70.970
  H      -29.373      25.134      68.958
  H      -28.888      22.746      68.932
  H      -31.956      22.395      68.820
  H      -25.650      25.752      73.776
  H      -31.487      20.233      69.930
  H      -25.500      24.063      74.137
  H      -30.729      20.333      68.320
  P      -28.609      23.040      66.339
  C      -29.239      25.462      65.646
  O      -28.242      24.592      66.163
  O      -29.064      22.602      64.870
  O      -27.504      22.178      66.864
  H      -28.389      22.041      64.443
  H      -28.849      26.457      65.587
  H      -30.092      25.451      66.292
  H      -29.527      25.134      64.669

 6  7  8  9  10  11  12  13  14  15  16  26  30  31  32  33  35 0
 6-311+G(2d,p)
 ****
 37  38 0
 6-311+G(2d,p)
 ****
 1  2  3  4  5  17  18  19  20  21  22  23  24  25 0
 3-21G
 ****
 27  28  29  34  36  39  40  41  42  43  44  45  46 0
 3-21G
 ****


