%nproc=1
%NoSave
%Mem=1900MB
#P OB98/GEN NMR

erre ene a

0 1
  C      163.078      92.783     256.829
  O      163.994      93.612     256.113
  P      165.540      93.195     256.044
  C      166.437      94.584     258.023
  O      166.169      93.283     257.518
  C      167.786      94.620     258.763
  O      167.762      93.691     259.877
  C      168.973      94.247     257.860
  O      170.040      95.196     257.913
  C      169.319      92.834     258.301
  O      170.662      92.476     258.007
  C      168.912      92.829     259.779
  N      168.636      91.476     260.268
  C      169.736      90.694     260.590
  O      170.900      91.058     260.411
  N      169.461      89.439     261.072
  C      168.224      88.881     261.182
  O      168.031      87.736     261.577
  C      167.098      89.734     260.768
  C      167.353      90.972     260.337
  O      166.341      93.856     254.972
  O      165.468      91.608     255.799
  H      170.807      91.549     258.300
  H      166.184      91.368     255.175
  H      170.250      88.865     261.325
  H      166.104      89.317     260.822
  H      166.546      91.618     260.013
  H      169.708      93.248     260.406
  H      168.674      92.132     257.756
  H      168.683      94.234     256.804
  H      167.911      95.634     259.156
  H      165.648      94.870     258.719
  H      166.406      95.308     257.203
  P      170.433      96.182     256.716
  C      172.738      95.218     256.021
  O      171.372      95.383     255.693
  O      170.945      97.524     257.121
  O      169.058      96.338     255.908
  H      168.958      97.263     255.619
  H      173.292      95.003     255.103
  H      172.849      94.374     256.707
  H      173.151      96.122     256.477
  H      162.097      93.206     256.774
  H      163.381      92.718     257.853
  H      163.070      91.804     256.397

 3  4  5  6  7  8  9  10  11  12  13  23  28  29  30  31  32 0
 6-311+G(2d,p)
 ****
 33  34 0
 6-311+G(2d,p)
 ****
 1  2  14  15  16  17  18  19  20  21  22  24  25  26  27 0
 3-21G
 ****
 35  36  37  38  39  40  41  42  43  44  45 0
 3-21G
 ****


