%nproc=1
%NoSave
%Mem=1900MB
#P OB98/GEN NMR

erre ene a

0 1
  C        6.320      -3.076      19.593
  O        5.588      -3.593      20.685
  H        5.697      -3.129      18.697
  H        7.224      -3.668      19.429
  H        6.585      -2.033      19.778
  P        6.345      -3.661      22.097
  C        7.508      -5.983      22.039
  O        6.412      -5.210      22.507
  C        7.218      -7.464      22.254
  O        6.952      -7.715      23.652
  C        5.992      -7.972      21.510
  O        6.253      -8.206      20.138
  C        5.697      -9.249      22.279
  O        6.495     -10.345      21.806
  C        6.084      -8.864      23.724
  N        4.914      -8.617      24.559
  C        4.094      -9.716      24.790
  O        4.320     -10.834      24.328
  N        2.976      -9.481      25.541
  C        2.588      -8.272      26.040
  O        1.535      -8.115      26.645
  C        3.501      -7.149      25.778
  C        4.601      -7.366      25.052
  O        5.274      -3.043      23.113
  O        7.651      -2.943      22.150
  H        5.518      -2.126      23.336
  H        6.085     -11.156      22.165
  H        2.363     -10.263      25.710
  H        3.226      -6.176      26.165
  H        5.279      -6.548      24.828
  H        6.667      -9.669      24.189
  H        4.655      -9.549      22.174
  H        5.153      -7.278      21.642
  H        8.110      -8.038      21.967
  H        8.411      -5.711      22.594
  H        7.669      -5.767      20.978
  P        5.016      -8.497      19.161
  C        5.808     -10.884      18.401
  O        5.541      -9.537      18.059
  O        4.910      -7.112      18.373
  O        3.775      -8.914      19.873
  H        5.776      -6.702      18.206
  H        6.146     -11.412      17.534
  H        4.915     -11.342      18.771
  H        6.565     -10.917      19.156

 6  7  8  9  10  11  12  13  14  15  16  27  31  32  33  34  35 0
 6-311+G(2d,p)
 ****
 36  37 0
 6-311+G(2d,p)
 ****
 1  2  3  4  5  17  18  19  20  21  22  23  24  25 0
 3-21G
 ****
 26  28  29  30  38  39  40  41  42  43  44  45 0
 3-21G
 ****


