%nproc=1
%NoSave
%Mem=1900MB
#P OB98/GEN NMR

erre ene a

0 1
  C     -341.981      78.723    -148.381
  O     -341.818      77.308    -148.409
  P     -342.728      76.413    -147.440
  C     -340.705      75.946    -145.796
  O     -342.051      76.315    -145.998
  C     -340.392      75.965    -144.290
  O     -340.531      77.305    -143.773
  C     -341.315      75.069    -143.470
  O     -340.848      73.735    -143.414
  C     -341.317      75.768    -142.125
  O     -340.108      75.470    -141.405
  C     -341.336      77.255    -142.557
  N     -342.648      77.884    -142.832
  C     -343.388      78.430    -141.789
  O     -343.032      78.425    -140.610
  N     -344.583      79.008    -142.133
  C     -345.025      79.249    -143.401
  O     -346.078      79.824    -143.654
  C     -344.138      78.787    -144.473
  C     -343.019      78.129    -144.151
  O     -342.577      74.937    -148.035
  O     -344.161      76.845    -147.370
  H     -340.189      75.879    -140.523
  H     -343.433      74.616    -148.373
  H     -345.166      79.343    -141.383
  H     -344.427      78.997    -145.493
  H     -342.355      77.781    -144.936
  H     -340.839      77.881    -141.808
  H     -342.137      75.421    -141.501
  H     -342.336      75.109    -143.870
  H     -339.350      75.653    -144.150
  H     -340.031      76.622    -146.327
  H     -340.534      74.943    -146.203
  P     -341.248      72.698    -144.570
  C     -343.084      71.291    -143.465
  O     -342.801      72.367    -144.335
  O     -340.349      71.519    -144.729
  O     -341.284      73.608    -145.891
  H     -340.429      73.548    -146.380
  H     -344.160      71.274    -143.269
  H     -342.553      71.413    -142.515
  H     -342.792      70.348    -143.930
  H     -341.307      79.174    -149.079
  H     -341.771      79.087    -147.397
  H     -342.987      78.971    -148.646

 3  4  5  6  7  8  9  10  11  12  13  23  28  29  30  31  32 0
 6-311+G(2d,p)
 ****
 33  34 0
 6-311+G(2d,p)
 ****
 1  2  14  15  16  17  18  19  20  21  22  24  25  26  27 0
 3-21G
 ****
 35  36  37  38  39  40  41  42  43  44  45 0
 3-21G
 ****


