%nproc=1
%NoSave
%Mem=1900MB
#P OB98/GEN NMR

erre ene a

0 1
  C      167.578    -345.550     160.949
  O      168.094    -344.656     161.915
  H      167.895    -346.564     161.207
  H      167.963    -345.300     159.954
  H      166.486    -345.509     160.947
  P      167.770    -343.099     161.698
  C      165.581    -343.662     162.933
  O      166.170    -343.005     161.818
  C      164.056    -343.516     162.894
  O      163.723    -342.117     163.052
  C      163.435    -343.998     161.581
  O      162.192    -344.644     161.856
  C      163.177    -342.712     160.815
  O      162.125    -342.843     159.863
  C      162.885    -341.728     161.950
  N      160.791    -337.165     161.041
  C      160.279    -338.307     161.547
  N      160.915    -339.479     161.770
  C      162.220    -339.377     161.458
  C      162.881    -338.282     160.934
  C      162.102    -337.129     160.714
  N      162.604    -335.970     160.178
  N      164.210    -338.581     160.707
  C      164.354    -339.832     161.106
  N      163.172    -340.360     161.552
  O      168.356    -342.482     160.473
  O      168.258    -342.469     163.084
  H      162.402    -343.492     159.184
  H      167.972    -343.010     163.843
  H      159.223    -338.286     161.799
  H      165.278    -340.400     161.077
  H      161.838    -341.761     162.273
  H      164.088    -342.416     160.274
  H      164.089    -344.674     161.030
  H      163.628    -344.047     163.754
  H      165.962    -343.235     163.870
  H      161.981    -335.184     160.066
  H      163.590    -335.917     159.945
  H      165.861    -344.719     162.893
  P      162.222    -346.125     162.468
  C      160.421    -345.505     164.211
  O      161.714    -346.063     163.988
  O      163.479    -346.899     162.243
  O      160.984    -346.826     161.726
  H      161.214    -347.755     161.528
  H      160.201    -345.521     165.258
  H      159.689    -346.080     163.684
  H      160.403    -344.495     163.858

 6  7  8  9  10  11  12  13  14  15  25  28  32  33  34  35 0
 6-311+G(2d,p)
 ****
 36  39  40 0
 6-311+G(2d,p)
 ****
 1  2  3  4  5  16  17  18  19  20  21  22  23  24 0
 3-21G
 ****
 26  27  29  30  31  37  38  41  42  43  44  45  46  47 0
 3-21G
 ****
 48 0
 3-21G
 ****


