%nproc=1
%NoSave
%Mem=1900MB
#P OB98/GEN NMR

erre ene a

0 1
  C      -50.962    -496.904    -206.298
  O      -51.705    -496.034    -207.125
  H      -49.899    -496.781    -206.525
  H      -51.241    -497.945    -206.492
  H      -51.123    -496.664    -205.244
  P      -53.307    -496.054    -207.013
  C      -55.245    -496.728    -208.580
  O      -53.839    -496.716    -208.377
  C      -55.570    -496.437    -210.050
  O      -55.369    -495.045    -210.342
  C      -54.709    -497.217    -211.046
  O      -55.215    -498.535    -211.217
  C      -54.887    -496.359    -212.289
  O      -56.179    -496.616    -212.871
  C      -54.849    -494.941    -211.697
  N      -51.178    -492.656    -214.358
  C      -52.338    -493.264    -214.792
  N      -52.538    -493.298    -216.131
  N      -53.225    -493.804    -213.993
  C      -52.864    -493.759    -212.694
  C      -51.732    -493.198    -212.139
  C      -50.796    -492.543    -213.029
  O      -49.766    -491.972    -212.678
  N      -51.663    -493.431    -210.784
  C      -52.777    -494.081    -210.514
  N      -53.535    -494.321    -211.639
  O      -53.960    -494.745    -206.682
  O      -53.611    -497.176    -205.917
  H      -56.209    -497.566    -213.101
  H      -53.680    -496.787    -205.025
  H      -50.530    -492.260    -215.022
  H      -53.084    -494.404    -209.527
  H      -55.505    -494.251    -212.243
  H      -54.137    -496.565    -213.056
  H      -51.825    -493.031    -216.802
  H      -53.655    -497.213    -210.753
  H      -53.348    -493.792    -216.473
  H      -56.633    -496.655    -210.205
  H      -55.686    -495.965    -207.932
  H      -55.661    -497.706    -208.301
  P      -54.297    -499.713    -211.812
  C      -53.106    -500.096    -214.078
  O      -54.010    -499.295    -213.337
  O      -54.843    -501.087    -211.628
  O      -52.862    -499.483    -211.129
  H      -52.792    -499.907    -210.241
  H      -53.011    -499.704    -215.069
  H      -53.475    -501.099    -214.125
  H      -52.149    -500.090    -213.599

 6  7  8  9  10  11  12  13  14  15  26  29  33  34 0
 6-311+G(2d,p)
 ****
 36  38  39  40  41 0
 6-311+G(2d,p)
 ****
 1  2  3  4  5  16  17  18  19  20  21  22  23  24  25 0
 3-21G
 ****
 27  28  30  31  32  35  37  42  43  44  45  46  47 0
 3-21G
 ****
 48  49 0
 3-21G
 ****


