%nproc=1
%NoSave
%Mem=1900MB
#P OB98/GEN NMR

erre ene a

0 1
  C       15.531     155.414      -3.065
  O       16.091     156.079      -4.184
  P       17.674     155.933      -4.411
  C       17.170     154.271      -6.350
  O       17.910     154.540      -5.166
  C       18.115     153.869      -7.480
  O       18.603     155.042      -8.161
  C       19.358     153.116      -7.028
  O       19.053     151.770      -6.703
  C       20.250     153.289      -8.253
  O       19.863     152.363      -9.280
  C       19.919     154.727      -8.687
  N       22.314     159.146      -9.663
  C       21.439     158.415     -10.389
  N       20.862     157.238     -10.070
  C       21.265     156.825      -8.859
  C       22.167     157.450      -8.015
  C       22.702     158.670      -8.457
  N       23.598     159.409      -7.716
  N       22.353     156.715      -6.864
  C       21.567     155.668      -7.005
  N       20.878     155.696      -8.187
  O       18.229     155.654      -2.938
  O       18.331     157.121      -5.042
  H       20.215     152.705     -10.127
  H       19.112     156.054      -2.816
  H       21.163     158.833     -11.353
  H       21.460     154.872      -6.281
  H       19.875     154.838      -9.776
  H       21.311     153.120      -8.040
  H       19.812     153.611      -6.162
  H       17.545     153.267      -8.200
  H       16.622     155.170      -6.651
  H       24.044     160.192      -8.169
  H       23.991     158.985      -6.886
  H       16.446     153.478      -6.144
  P       20.094     150.984      -5.768
  C       18.458     150.898      -3.789
  O       19.678     151.425      -4.279
  O       21.438     151.810      -6.014
  O       20.175     149.518      -6.013
  H       21.298     152.770      -5.932
  H       18.324     151.232      -2.757
  H       18.481     149.805      -3.811
  H       17.622     151.267      -4.391
  H       14.477     155.594      -3.034
  H       15.983     155.783      -2.168
  H       15.711     154.363      -3.148

 3  4  5  6  7  8  9  10  11  12  22  25  29  30  31  32 0
 6-311+G(2d,p)
 ****
 33  36  37 0
 6-311+G(2d,p)
 ****
 1  2  13  14  15  16  17  18  19  20  21  23  24  26 0
 3-21G
 ****
 27  28  34  35  38  39  40  41  42  43  44  45  46  47  48 0
 3-21G
 ****


