%nproc=1
%NoSave
%Mem=1900MB
#P OB98/GEN NMR

erre ene a

0 1
  C      -99.521     -77.799     -79.554
  O      -99.676     -76.443     -79.929
  H     -100.265     -78.393     -80.095
  H      -99.695     -77.913     -78.482
  H      -98.524     -78.164     -79.816
  P      -98.618     -75.366     -79.394
  C      -98.568     -73.665     -77.450
  O      -99.126     -74.874     -77.949
  C      -97.954     -73.886     -76.064
  O      -99.031     -74.008     -75.091
  C      -97.095     -75.149     -75.962
  O      -95.973     -74.887     -75.112
  C      -98.017     -76.153     -75.301
  O      -97.300     -77.168     -74.594
  C      -98.868     -75.260     -74.400
  N     -101.178     -79.505     -72.918
  C      -99.834     -79.211     -73.019
  N      -98.974     -80.199     -72.695
  N      -99.373     -78.053     -73.409
  C     -100.347     -77.147     -73.680
  C     -101.710     -77.317     -73.616
  C     -102.208     -78.614     -73.211
  O     -103.392     -78.936     -73.119
  N     -102.369     -76.168     -73.994
  C     -101.406     -75.314     -74.274
  N     -100.160     -75.861     -74.115
  O      -98.301     -74.260     -80.354
  O      -97.315     -76.225     -79.046
  H      -96.868     -77.734     -75.271
  H      -96.625     -76.101     -79.718
  H     -101.480     -80.416     -72.629
  H     -101.555     -74.290     -74.607
  H      -98.386     -75.066     -73.434
  H      -98.632     -76.647     -76.067
  H      -99.259     -81.112     -72.365
  H      -96.739     -75.486     -76.940
  H      -97.977     -80.006     -72.730
  H      -97.381     -72.993     -75.793
  H      -99.364     -72.916     -77.385
  H      -97.801     -73.310     -78.148
  P      -94.502     -75.288     -75.606
  C      -93.278     -77.396     -76.430
  O      -94.423     -76.885     -75.762
  O      -93.378     -74.672     -74.845
  O      -94.498     -74.788     -77.136
  H      -93.602     -74.471     -77.360
  H      -93.337     -78.464     -76.473
  H      -92.396     -77.108     -75.897
  H      -93.239     -77.001     -77.424

 6  7  8  9  10  11  12  13  14  15  26  29  33  34 0
 6-311+G(2d,p)
 ****
 36  38  39  40  41 0
 6-311+G(2d,p)
 ****
 1  2  3  4  5  16  17  18  19  20  21  22  23  24  25 0
 3-21G
 ****
 27  28  30  31  32  35  37  42  43  44  45  46  47 0
 3-21G
 ****
 48  49 0
 3-21G
 ****


