%nproc=1
%NoSave
%Mem=1900MB
#P OB98/GEN NMR

erre ene a

0 1
  C     -255.359     -87.901     -78.661
  O     -254.783     -89.178     -78.502
  P     -254.482     -90.097     -79.781
  C     -255.567     -90.384     -82.099
  O     -255.748     -89.937     -80.756
  C     -256.783     -91.197     -82.545
  O     -258.017     -90.562     -82.132
  C     -256.913     -91.334     -84.058
  O     -255.925     -92.072     -84.729
  C     -258.352     -91.815     -84.181
  O     -258.450     -93.220     -83.948
  C     -259.043     -91.023     -83.045
  N     -259.851     -89.915     -83.564
  C     -261.182     -90.204     -83.820
  O     -261.692     -91.305     -83.628
  N     -261.930     -89.174     -84.333
  C     -261.463     -87.932     -84.653
  O     -262.179     -87.073     -85.155
  C     -260.040     -87.698     -84.383
  C     -259.303     -88.682     -83.855
  O     -254.114     -91.511     -79.475
  O     -253.347     -89.283     -80.564
  H     -258.055     -93.402     -83.075
  H     -253.606     -88.389     -80.844
  H     -262.897     -89.366     -84.532
  H     -259.639     -86.714     -84.619
  H     -258.249     -88.527     -83.644
  H     -259.703     -91.684     -82.475
  H     -258.754     -91.628     -85.187
  H     -256.877     -90.327     -84.490
  H     -256.742     -92.174     -82.054
  H     -254.675     -91.021     -82.143
  H     -255.403     -89.521     -82.748
  P     -255.635     -91.933     -86.301
  C     -257.052     -91.458     -88.418
  O     -257.040     -91.861     -87.067
  O     -254.590     -92.833     -86.873
  O     -255.123     -90.419     -86.403
  H     -254.488     -90.342     -87.129
  H     -258.092     -91.419     -88.765
  H     -256.511     -92.172     -89.040
  H     -256.611     -90.461     -88.530
  H     -255.483     -87.444     -77.702
  H     -256.313     -87.997     -79.136
  H     -254.719     -87.294     -79.266

 3  4  5  6  7  8  9  10  11  12  13  23  28  29  30  31  32 0
 6-311+G(2d,p)
 ****
 33  34 0
 6-311+G(2d,p)
 ****
 1  2  14  15  16  17  18  19  20  21  22  24  25  26  27 0
 3-21G
 ****
 35  36  37  38  39  40  41  42  43  44  45 0
 3-21G
 ****


