%nproc=1
%NoSave
%Mem=1900MB
#P OB98/GEN NMR

erre ene a

0 1
  C     -309.794     263.208     624.893
  O     -310.557     262.930     623.735
  H     -310.398     263.812     625.574
  H     -308.896     263.770     624.629
  H     -309.516     262.273     625.400
  P     -309.830     262.067     622.593
  C     -311.822     261.117     621.229
  O     -310.804     262.108     621.313
  C     -313.072     261.700     620.557
  O     -313.870     262.435     621.515
  C     -312.776     262.656     619.408
  O     -312.523     261.947     618.201
  C     -314.063     263.464     619.351
  O     -315.100     262.754     618.646
  C     -314.420     263.603     620.839
  N     -315.712     268.102     622.731
  C     -316.498     267.088     622.234
  N     -317.831     267.323     622.181
  N     -316.030     265.940     621.810
  C     -314.677     265.855     621.887
  C     -313.794     266.788     622.378
  C     -314.327     268.042     622.871
  O     -313.694     268.958     623.380
  N     -312.501     266.328     622.313
  C     -312.606     265.140     621.747
  N     -313.907     264.817     621.458
  O     -309.972     260.557     623.109
  O     -308.405     262.423     622.330
  H     -314.793     262.542     617.748
  H     -309.210     260.042     622.799
  H     -316.134     268.955     623.059
  H     -311.776     264.480     621.533
  H     -315.504     263.593     621.013
  H     -313.928     264.410     618.836
  H     -318.203     268.269     622.172
  H     -311.935     263.323     619.659
  H     -318.414     266.596     621.803
  H     -313.679     260.853     620.208
  H     -312.086     260.791     622.242
  H     -311.452     260.266     620.656
  P     -311.475     262.591     617.166
  C     -310.191     260.502     616.303
  O     -311.200     261.471     616.051
  O     -310.107     262.627     618.002
  O     -311.859     263.940     616.654
  H     -309.473     263.240     617.574
  H     -310.127     259.829     615.473
  H     -310.436     259.954     617.189
  H     -309.250     260.993     616.437

 6  7  8  9  10  11  12  13  14  15  26  29  33  34 0
 6-311+G(2d,p)
 ****
 36  38  39  40  41 0
 6-311+G(2d,p)
 ****
 1  2  3  4  5  16  17  18  19  20  21  22  23  24  25 0
 3-21G
 ****
 27  28  30  31  32  35  37  42  43  44  45  46  47 0
 3-21G
 ****
 48  49 0
 3-21G
 ****


