%nproc=1
%NoSave
%Mem=1900MB
#P OB98/GEN NMR

erre ene a

0 1
  C     -281.821     -82.187      69.045
  O     -281.518     -83.569      68.823
  P     -280.790     -84.370      70.010
  C     -282.738     -84.604      71.709
  O     -281.884     -85.254      70.781
  C     -283.529     -85.616      72.551
  O     -284.301     -86.507      71.699
  C     -282.641     -86.506      73.428
  O     -283.381     -86.857      74.606
  C     -282.468     -87.745      72.574
  O     -282.042     -88.867      73.350
  C     -283.863     -87.857      71.964
  N     -283.549     -92.542      70.125
  C     -283.459     -92.088      71.427
  N     -283.301     -93.028      72.383
  N     -283.527     -90.825      71.762
  C     -283.724     -90.003      70.701
  C     -283.822     -90.331      69.370
  C     -283.722     -91.729      69.011
  O     -283.780     -92.186      67.875
  N     -283.997     -89.212      68.591
  C     -283.999     -88.214      69.455
  N     -283.875     -88.646      70.748
  O     -280.441     -83.210      71.061
  O     -279.559     -85.097      69.580
  H     -281.299     -88.563      73.919
  H     -279.482     -83.042      71.058
  H     -283.481     -93.525      69.922
  H     -284.088     -87.170      69.199
  H     -284.583     -88.320      72.651
  H     -281.713     -87.562      71.799
  H     -283.292     -94.019      72.198
  H     -281.688     -86.055      73.723
  H     -283.272     -92.727      73.350
  H     -284.240     -85.069      73.179
  H     -283.439     -83.947      71.181
  H     -282.137     -83.944      72.341
  P     -282.871     -86.246      75.993
  C     -283.793     -83.863      76.453
  O     -284.025     -85.259      76.501
  O     -281.692     -85.255      75.559
  O     -282.409     -87.261      76.991
  H     -281.063     -85.132      76.294
  H     -284.335     -83.441      75.604
  H     -282.729     -83.627      76.359
  H     -284.172     -83.415      77.375
  H     -282.301     -81.783      68.178
  H     -280.916     -81.649      69.234
  H     -282.473     -82.096      69.888

 3  4  5  6  7  8  9  10  11  12  23  26  30  31 0
 6-311+G(2d,p)
 ****
 33  35  36  37  38 0
 6-311+G(2d,p)
 ****
 1  2  13  14  15  16  17  18  19  20  21  22  24  25 0
 3-21G
 ****
 27  28  29  32  34  39  40  41  42  43  44  45  46  47  48  49 0
 3-21G
 ****


