%nproc=1
%NoSave
%Mem=1900MB
#P OB98/GEN NMR

erre ene a

0 1
  C      516.995    1144.219     110.512
  O      516.641    1142.922     110.969
  H      517.116    1144.882     111.378
  H      516.214    1144.636     109.868
  H      517.946    1144.189     109.965
  P      516.262    1141.821     109.882
  C      513.965    1141.714     111.077
  O      514.655    1141.790     109.838
  C      512.476    1141.508     110.833
  O      511.915    1142.620     110.096
  C      512.172    1140.270     109.991
  O      512.312    1139.088     110.754
  C      510.772    1140.584     109.515
  O      509.787    1140.294     110.530
  C      510.865    1142.109     109.261
  N      511.108    1142.425     107.850
  C      509.972    1142.683     107.069
  O      508.843    1142.638     107.567
  N      510.150    1142.958     105.736
  C      511.341    1143.005     105.224
  N      511.445    1143.290     103.886
  C      512.567    1142.750     106.015
  C      512.367    1142.462     107.306
  O      516.903    1140.468     110.031
  O      516.653    1142.507     108.484
  H      508.958    1140.691     110.206
  H      517.585    1142.308     108.255
  H      513.549    1142.796     105.551
  H      513.219    1142.272     107.951
  H      509.938    1142.602     109.567
  H      510.509    1140.004     108.616
  H      512.829    1140.234     109.121
  H      511.960    1141.454     111.809
  H      510.582    1143.438     103.399
  H      514.122    1142.671     111.586
  H      512.308    1143.422     103.413
  H      514.362    1140.910     111.691
  P      512.607    1137.680     110.075
  C      510.353    1136.787     110.908
  O      511.170    1137.017     109.767
  O      513.591    1136.811     110.783
  O      513.103    1138.111     108.584
  H      514.015    1138.486     108.616
  H      509.427    1136.348     110.601
  H      510.160    1137.716     111.402
  H      510.857    1136.124     111.580

 6  7  8  9  10  11  12  13  14  15  16  26  30  31  32  33  35 0
 6-311+G(2d,p)
 ****
 37  38 0
 6-311+G(2d,p)
 ****
 1  2  3  4  5  17  18  19  20  21  22  23  24  25 0
 3-21G
 ****
 27  28  29  34  36  39  40  41  42  43  44  45  46 0
 3-21G
 ****


