%nproc=1
%NoSave
%Mem=1900MB
#P OB98/GEN NMR

erre ene a

0 1
  C     -893.240    -858.556    -892.650
  O     -894.560    -859.067    -892.820
  H     -892.570    -859.403    -892.760
  H     -893.150    -858.143    -891.630
  H     -892.990    -857.820    -893.400
  P     -895.770    -858.001    -893.050
  C     -896.920    -858.703    -895.240
  O     -895.990    -857.852    -894.610
  C     -896.290    -860.005    -895.750
  O     -895.800    -860.820    -894.550
  C     -897.280    -860.917    -896.570
  O     -896.620    -861.730    -897.540
  C     -897.900    -861.794    -895.440
  O     -898.430    -863.037    -895.940
  C     -896.640    -861.995    -894.500
  N     -898.750    -865.302    -891.250
  C     -898.760    -865.320    -892.640
  N     -899.420    -866.343    -893.250
  N     -898.220    -864.373    -893.420
  C     -897.650    -863.417    -892.630
  C     -897.580    -863.237    -891.230
  C     -898.200    -864.298    -890.440
  O     -898.210    -864.300    -889.250
  N     -896.940    -862.103    -890.850
  C     -896.650    -861.500    -892.050
  N     -897.000    -862.286    -893.120
  O     -895.090    -856.599    -892.660
  O     -897.010    -858.234    -892.240
  H     -899.060    -862.796    -896.650
  H     -895.800    -855.957    -892.410
  H     -899.160    -866.049    -890.710
  H     -896.090    -860.533    -892.100
  H     -896.090    -862.853    -894.880
  H     -898.720    -861.262    -894.930
  H     -900.000    -866.961    -892.680
  H     -898.080    -860.339    -897.020
  H     -899.690    -866.198    -894.240
  H     -895.370    -859.754    -896.350
  H     -897.390    -858.167    -896.110
  H     -897.770    -858.968    -894.530
  P     -895.670    -860.986    -898.650
  C     -893.230    -862.013    -898.570
  O     -894.140    -861.040    -898.140
  O     -896.110    -859.421    -898.540
  O     -895.900    -861.473    -900.000
  H     -896.520    -859.160    -899.360
  H     -892.283    -861.848    -898.100
  H     -893.117    -861.951    -899.632
  H     -893.595    -862.984    -898.307

 6  7  8  9  10  11  12  13  14  15  26  29  33  34 0
 6-311+G(2d,p)
 ****
 36  38  39  40  41 0
 6-311+G(2d,p)
 ****
 1  2  3  4  5  16  17  18  19  20  21  22  23  24  25 0
 3-21G
 ****
 27  28  30  31  32  35  37  42  43  44  45  46  47 0
 3-21G
 ****
 48  49 0
 3-21G
 ****


