%nproc=1
%NoSave
%Mem=1900MB
#P OB98/GEN NMR

erre ene a

0 1
  C     -824.329     449.815    -418.633
  O     -824.282     450.172    -420.001
  H     -823.397     450.142    -418.160
  H     -824.408     448.730    -418.525
  H     -825.166     450.304    -418.134
  P     -825.574     449.890    -420.913
  C     -825.493     452.059    -422.298
  O     -826.184     451.328    -421.298
  C     -824.759     453.249    -421.679
  O     -823.806     452.759    -420.695
  C     -823.985     454.088    -422.697
  O     -824.090     455.466    -422.331
  C     -822.550     453.625    -422.523
  O     -821.606     454.628    -422.904
  C     -822.508     453.281    -421.035
  N     -819.970     451.039    -417.283
  C     -821.031     451.927    -417.243
  N     -821.468     452.298    -416.020
  N     -821.607     452.417    -418.309
  C     -821.083     451.953    -419.467
  C     -820.036     451.082    -419.643
  C     -819.393     450.560    -418.453
  O     -818.446     449.779    -418.432
  N     -819.774     450.886    -420.980
  C     -820.661     451.632    -421.606
  N     -821.471     452.307    -420.732
  O     -826.564     448.929    -420.339
  O     -824.967     449.368    -422.293
  H     -820.718     454.232    -422.803
  H     -825.019     448.395    -422.350
  H     -819.558     450.708    -416.440
  H     -820.753     451.722    -422.674
  H     -822.314     454.161    -420.411
  H     -822.374     452.739    -423.138
  H     -821.082     451.951    -415.160
  H     -824.341     453.955    -423.723
  H     -822.260     452.926    -415.958
  H     -825.491     453.866    -421.139
  H     -826.222     452.413    -423.031
  H     -824.779     451.396    -422.797
  P     -825.518     456.192    -422.440
  C     -825.428     457.831    -420.451
  O     -825.982     456.622    -420.963
  O     -826.545     455.475    -423.247
  O     -825.143     457.610    -423.104
  H     -825.903     457.911    -423.638
  H     -825.810     458.010    -419.467
  H     -825.696     458.645    -421.091
  H     -824.362     457.746    -420.410

 6  7  8  9  10  11  12  13  14  15  26  29  33  34 0
 6-311+G(2d,p)
 ****
 36  38  39  40  41 0
 6-311+G(2d,p)
 ****
 1  2  3  4  5  16  17  18  19  20  21  22  23  24  25 0
 3-21G
 ****
 27  28  30  31  32  35  37  42  43  44  45  46  47 0
 3-21G
 ****
 48  49 0
 3-21G
 ****


