%nproc=1
%NoSave
%Mem=1900MB
#P OB98/GEN NMR

erre ene a

0 1
  C       75.173     -14.782      30.329
  O       76.409     -15.459      30.255
  H       74.366     -15.515      30.256
  H       75.082     -14.083      29.494
  H       75.072     -14.245      31.276
  P       77.754     -14.665      30.615
  C       79.032     -15.570      28.565
  O       78.955     -15.520      29.982
  C       80.435     -15.997      28.129
  O       81.350     -14.887      28.383
  C       80.968     -17.226      28.894
  O       81.789     -17.994      28.008
  C       81.823     -16.570      29.959
  O       82.761     -17.463      30.504
  C       82.430     -15.410      29.175
  N       83.008     -14.406      30.064
  C       84.380     -14.465      30.269
  O       85.112     -15.310      29.757
  N       84.893     -13.555      31.154
  C       84.168     -12.690      31.918
  O       84.672     -11.953      32.752
  C       82.713     -12.709      31.697
  C       82.208     -13.549      30.790
  O       77.935     -14.305      32.051
  O       77.720     -13.379      29.663
  H       83.179     -17.983      29.792
  H       78.296     -12.677      30.020
  H       85.889     -13.578      31.305
  H       82.106     -12.046      32.298
  H       81.140     -13.603      30.614
  H       83.206     -15.767      28.485
  H       81.194     -16.205      30.777
  H       80.174     -17.853      29.306
  H       80.438     -16.173      27.048
  H       78.809     -14.571      28.174
  H       78.288     -16.276      28.183
  P       81.349     -19.450      27.495
  C       83.020     -20.615      29.058
  O       82.537     -20.510      27.723
  O       80.780     -19.467      26.112
  O       80.235     -19.917      28.547
  H       79.476     -20.293      28.063
  H       83.803     -21.343      29.098
  H       82.221     -20.915      29.704
  H       83.399     -19.666      29.376

 6  7  8  9  10  11  12  13  14  15  16  26  31  32  33  34  35 0
 6-311+G(2d,p)
 ****
 36  37 0
 6-311+G(2d,p)
 ****
 1  2  3  4  5  17  18  19  20  21  22  23  24  25 0
 3-21G
 ****
 27  28  29  30  38  39  40  41  42  43  44  45 0
 3-21G
 ****


