%nproc=1
%NoSave
%Mem=1900MB
#P OB98/GEN NMR

erre ene a

0 1
  C      378.700     351.958      41.478
  O      378.451     352.174      40.103
  H      379.181     350.980      41.604
  H      377.756     351.958      42.030
  H      379.366     352.729      41.876
  P      377.940     353.636      39.684
  C      380.398     354.469      39.685
  O      379.073     354.668      40.161
  C      380.770     355.568      38.680
  O      380.614     356.872      39.286
  C      382.207     355.494      38.180
  O      382.349     354.556      37.116
  C      382.396     356.922      37.685
  O      381.739     357.085      36.407
  C      381.668     357.729      38.768
  N      381.939     358.541      43.765
  C      380.873     358.119      42.991
  N      379.706     357.889      43.639
  N      380.934     357.942      41.696
  C      382.158     358.220      41.182
  C      383.292     358.639      41.843
  C      383.206     358.820      43.278
  O      384.124     359.170      44.016
  N      384.345     358.809      40.985
  C      383.847     358.508      39.801
  N      382.526     358.154      39.864
  O      376.737     353.918      40.712
  O      377.491     353.779      38.272
  H      382.202     356.506      35.776
  H      376.042     354.426      40.249
  H      381.828     358.669      44.762
  H      384.406     358.532      38.875
  H      381.192     358.630      38.364
  H      383.448     357.180      37.538
  H      379.581     358.053      44.627
  H      382.911     355.296      38.994
  H      378.923     357.553      43.097
  H      380.058     355.512      37.847
  H      380.461     353.496      39.192
  H      381.092     354.489      40.533
  P      383.378     353.347      37.332
  C      381.628     351.473      37.736
  O      382.633     352.307      38.302
  O      384.504     353.989      38.279
  O      383.953     352.777      36.076
  H      385.338     353.496      38.180
  H      381.223     350.837      38.495
  H      382.057     350.874      36.960
  H      380.849     352.081      37.327

 6  7  8  9  10  11  12  13  14  15  26  29  33  34 0
 6-311+G(2d,p)
 ****
 36  38  39  40  41 0
 6-311+G(2d,p)
 ****
 1  2  3  4  5  16  17  18  19  20  21  22  23  24  25 0
 3-21G
 ****
 27  28  30  31  32  35  37  42  43  44  45  46  47 0
 3-21G
 ****
 48  49 0
 3-21G
 ****


