%nproc=1
%NoSave
%Mem=1900MB
#P OB98/GEN NMR

erre ene a

0 1
  C     -650.851     495.301     380.789
  O     -649.538     495.837     380.815
  P     -648.598     495.618     382.095
  C     -646.078     495.998     382.492
  O     -647.093     495.693     381.530
  C     -644.775     495.271     382.133
  O     -644.940     493.836     382.266
  C     -644.285     495.505     380.713
  O     -643.684     496.782     380.590
  C     -643.337     494.339     380.526
  O     -642.054     494.617     381.087
  C     -644.049     493.210     381.319
  N     -644.756     492.271     380.448
  C     -643.955     491.569     379.544
  O     -642.740     491.767     379.496
  N     -644.560     490.665     378.693
  C     -645.850     490.530     378.715
  N     -646.392     489.633     377.838
  C     -646.733     491.283     379.631
  C     -646.114     492.127     380.454
  O     -648.915     494.422     382.930
  O     -648.744     496.999     382.885
  H     -641.560     493.763     381.071
  H     -649.622     497.066     383.349
  H     -647.799     491.134     379.620
  H     -646.689     492.734     381.166
  H     -643.319     492.637     381.904
  H     -643.188     494.091     379.464
  H     -645.128     495.403     380.002
  H     -644.005     495.589     382.855
  H     -645.761     489.163     377.210
  H     -646.422     495.656     383.469
  H     -647.382     489.474     377.752
  H     -645.925     497.076     382.524
  P     -643.127     497.273     379.173
  C     -643.245     499.401     377.727
  O     -643.565     498.811     378.989
  O     -643.441     496.377     378.015
  O     -641.547     497.370     379.406
  H     -641.093     496.972     378.633
  H     -643.864     500.301     377.609
  H     -643.436     498.718     376.915
  H     -642.195     499.683     377.730
  H     -651.319     495.549     379.860
  H     -651.420     495.712     381.596
  H     -650.804     494.237     380.891

 3  4  5  6  7  8  9  10  11  12  13  23  27  28  29  30  32 0
 6-311+G(2d,p)
 ****
 34  35 0
 6-311+G(2d,p)
 ****
 1  2  14  15  16  17  18  19  20  21  22  24  25  26 0
 3-21G
 ****
 31  33  36  37  38  39  40  41  42  43  44  45  46 0
 3-21G
 ****


