%nproc=1
%NoSave
%Mem=1900MB
#P OB98/GEN NMR

erre ene a

0 1
  C      408.618    -866.789    -433.521
  O      408.730    -867.722    -432.450
  P      410.198    -868.141    -431.941
  C      410.290    -866.266    -430.076
  O      410.881    -866.923    -431.187
  C      411.376    -865.911    -429.057
  O      411.998    -867.125    -428.538
  C      412.499    -865.050    -429.621
  O      412.187    -863.672    -429.564
  C      413.680    -865.441    -428.761
  O      413.602    -864.785    -427.478
  C      413.438    -866.962    -428.599
  N      413.978    -867.875    -429.649
  C      415.328    -867.878    -429.956
  O      416.164    -867.155    -429.386
  N      415.747    -868.754    -430.911
  C      414.989    -869.723    -431.486
  O      415.417    -870.534    -432.309
  C      413.593    -869.800    -431.039
  C      413.152    -868.861    -430.172
  O      411.049    -868.260    -433.308
  O      410.250    -869.405    -431.149
  H      412.714    -864.956    -427.125
  H      411.336    -869.180    -433.451
  H      416.718    -868.725    -431.189
  H      412.953    -870.586    -431.431
  H      412.117    -868.899    -429.831
  H      413.845    -867.329    -427.648
  H      414.622    -865.132    -429.206
  H      412.718    -865.365    -430.663
  H      410.906    -865.409    -428.207
  H      409.531    -866.897    -429.612
  H      409.785    -865.355    -430.411
  P      411.874    -862.858    -430.905
  C      409.415    -862.382    -430.352
  O      410.293    -863.082    -431.186
  O      412.776    -863.145    -432.079
  O      411.909    -861.332    -430.452
  H      412.803    -860.946    -430.650
  H      408.388    -862.484    -430.734
  H      409.669    -861.315    -430.325
  H      409.455    -862.804    -429.330
  H      407.584    -866.617    -433.738
  H      409.104    -867.183    -434.389
  H      409.081    -865.866    -433.240

 3  4  5  6  7  8  9  10  11  12  13  23  28  29  30  31  32 0
 6-311+G(2d,p)
 ****
 33  34 0
 6-311+G(2d,p)
 ****
 1  2  14  15  16  17  18  19  20  21  22  24  25  26  27 0
 3-21G
 ****
 35  36  37  38  39  40  41  42  43  44  45 0
 3-21G
 ****


