%nproc=1
%NoSave
%Mem=1900MB
#P OB98/GEN NMR

erre ene a

0 1
  C     -309.176     143.342     117.821
  O     -309.951     142.239     118.295
  P     -310.424     141.176     117.189
  C     -312.085     141.191     115.196
  O     -311.295     141.959     116.091
  C     -313.352     141.954     114.801
  O     -314.171     142.285     115.939
  C     -313.067     143.272     114.095
  O     -312.749     143.037     112.734
  C     -314.384     144.016     114.283
  O     -315.346     143.641     113.277
  C     -314.846     143.541     115.669
  N     -316.702     147.444     118.319
  C     -317.188     146.839     117.175
  N     -318.344     147.329     116.681
  N     -316.591     145.843     116.572
  C     -315.445     145.457     117.178
  C     -314.879     145.957     118.329
  C     -315.546     147.062     118.984
  O     -315.169     147.614     120.010
  N     -313.744     145.265     118.671
  C     -313.560     144.436     117.660
  N     -314.597     144.466     116.760
  O     -311.499     140.283     117.971
  O     -309.309     140.345     116.647
  H     -315.541     142.691     113.361
  H     -311.137     139.389     118.123
  H     -317.198     148.212     118.737
  H     -312.711     143.778     117.546
  H     -315.923     143.336     115.684
  H     -314.256     145.100     114.195
  H     -318.858     148.090     117.096
  H     -312.257     143.807     114.607
  H     -318.722     146.895     115.846
  H     -313.938     141.299     114.142
  H     -312.357     140.240     115.658
  H     -311.484     140.951     114.313
  P     -311.266     143.389     112.240
  C     -309.880     145.583     112.199
  O     -311.157     144.981     112.136
  O     -311.265     142.902     110.715
  O     -310.178     142.721     113.018
  H     -310.439     142.420     110.525
  H     -309.897     146.509     111.621
  H     -309.104     144.927     111.797
  H     -309.646     145.821     113.241
  H     -308.921     143.978     118.643
  H     -309.745     143.896     117.104
  H     -308.281     142.978     117.361

 3  4  5  6  7  8  9  10  11  12  23  26  30  31 0
 6-311+G(2d,p)
 ****
 33  35  36  37  38 0
 6-311+G(2d,p)
 ****
 1  2  13  14  15  16  17  18  19  20  21  22  24  25 0
 3-21G
 ****
 27  28  29  32  34  39  40  41  42  43  44  45  46  47  48  49 0
 3-21G
 ****


