%nproc=1
%NoSave
%Mem=1900MB
#P OB98/GEN NMR

erre ene a

0 1
  C     -175.099     275.569    -115.150
  O     -175.125     274.434    -114.282
  P     -175.767     273.088    -114.875
  C     -174.189     271.302    -113.855
  O     -175.484     271.887    -113.843
  C     -173.234     272.004    -112.881
  O     -173.868     272.207    -111.587
  C     -171.935     271.231    -112.632
  O     -170.897     272.191    -112.433
  C     -172.206     270.525    -111.315
  O     -170.990     270.145    -110.676
  C     -173.030     271.596    -110.583
  N     -173.818     271.059    -109.475
  C     -173.339     271.284    -108.184
  O     -172.258     271.857    -108.016
  N     -174.068     270.829    -107.115
  C     -175.156     270.157    -107.322
  N     -175.832     269.728    -106.222
  C     -175.670     269.840    -108.669
  C     -174.960     270.322    -109.685
  O     -174.828     272.747    -116.124
  O     -177.195     273.239    -115.291
  H     -170.486     270.961    -110.467
  H     -175.373     272.573    -116.913
  H     -176.573     269.257    -108.791
  H     -175.255     270.146    -110.712
  H     -172.372     272.377    -110.177
  H     -172.810     269.625    -111.485
  H     -171.667     270.554    -113.447
  H     -173.000     272.995    -113.289
  H     -175.452     269.972    -105.315
  H     -173.767     271.347    -114.861
  H     -176.689     269.193    -106.264
  H     -174.282     270.238    -113.612
  P     -169.757     272.317    -113.554
  C     -169.561     274.860    -113.244
  O     -168.906     273.613    -113.128
  O     -170.595     272.887    -114.801
  O     -168.984     271.099    -113.928
  H     -170.018     272.940    -115.583
  H     -168.922     275.633    -112.808
  H     -170.514     274.845    -112.704
  H     -169.727     275.097    -114.300
  H     -174.650     276.397    -114.642
  H     -176.099     275.824    -115.433
  H     -174.529     275.336    -116.025

 3  4  5  6  7  8  9  10  11  12  13  21  23  27  28  29  30  32 0
 6-311+G(2d,p)
 ****
 34  35 0
 6-311+G(2d,p)
 ****
 1  2  14  15  16  17  18  19  20  22  24  25  26 0
 3-21G
 ****
 31  33  36  37  38  39  40  41  42  43  44  45  46 0
 3-21G
 ****


