%nproc=1
%NoSave
%Mem=1900MB
#P OB98/GEN NMR

erre ene a

0 1
  C      -97.943    -172.277      81.199
  O      -98.529    -173.564      81.151
  H      -96.918    -172.371      81.566
  H      -98.504    -171.633      81.882
  H      -97.921    -171.836      80.199
  P     -100.039    -173.643      80.610
  C      -99.327    -174.946      78.488
  O     -100.065    -174.967      79.704
  C      -98.692    -176.311      78.223
  O      -97.498    -176.474      79.009
  C      -99.584    -177.496      78.578
  O     -100.522    -177.751      77.540
  C      -98.550    -178.607      78.684
  O      -98.197    -179.072      77.367
  C      -97.350    -177.885      79.324
  N      -95.089    -180.484      83.135
  C      -95.119    -180.693      81.801
  N      -95.776    -179.985      80.853
  C      -96.457    -178.967      81.403
  C      -96.521    -178.632      82.748
  C      -95.788    -179.435      83.635
  N      -95.754    -179.214      84.998
  N      -97.320    -177.525      82.939
  C      -97.688    -177.166      81.726
  N      -97.222    -178.030      80.764
  O     -100.567    -172.399      79.982
  O     -100.812    -174.119      81.933
  H      -98.975    -179.535      76.998
  H     -100.277    -174.767      82.426
  H      -94.539    -181.536      81.445
  H      -98.277    -176.286      81.486
  H      -96.398    -178.219      78.894
  H      -98.924    -179.472      79.239
  H     -100.067    -177.362      79.550
  H      -98.396    -176.344      77.167
  H      -98.550    -174.175      78.527
  H      -95.345    -179.933      85.576
  H      -96.370    -178.514      85.381
  H     -100.027    -174.695      77.683
  P     -101.961    -178.373      77.875
  C     -102.949    -176.944      75.977
  O     -102.836    -178.250      76.535
  O     -102.618    -177.826      79.097
  O     -101.701    -179.946      77.994
  H     -102.245    -180.329      78.711
  H     -103.551    -176.985      75.093
  H     -101.975    -176.577      75.729
  H     -103.406    -176.290      76.690

 6  7  8  9  10  11  12  13  14  15  25  28  32  33  34  35 0
 6-311+G(2d,p)
 ****
 36  39  40 0
 6-311+G(2d,p)
 ****
 1  2  3  4  5  16  17  18  19  20  21  22  23  24 0
 3-21G
 ****
 26  27  29  30  31  37  38  41  42  43  44  45  46  47 0
 3-21G
 ****
 48 0
 3-21G
 ****


