%nproc=1
%NoSave
%Mem=1900MB
#P OB98/GEN NMR

erre ene a

0 1
  C       18.007    -343.208     402.876
  O       18.709    -343.449     401.644
  P       18.050    -342.959     400.261
  C       17.854    -340.655     399.028
  O       18.568    -341.472     399.948
  C       18.526    -339.287     398.903
  O       18.655    -338.665     400.201
  C       19.944    -339.331     398.344
  O       19.950    -339.521     396.937
  C       20.478    -337.968     398.775
  O       20.069    -336.941     397.858
  C       19.796    -337.777     400.143
  N       20.705    -338.005     401.265
  C       21.068    -336.882     402.004
  O       20.707    -335.743     401.720
  N       21.896    -337.112     403.071
  C       22.438    -338.319     403.418
  O       23.192    -338.457     404.374
  C       22.083    -339.451     402.554
  C       21.252    -339.244     401.530
  O       16.530    -342.693     400.692
  O       18.119    -343.931     399.130
  H       20.505    -337.135     397.006
  H       15.944    -342.821     399.920
  H       22.148    -336.320     403.637
  H       22.511    -340.420     402.782
  H       20.977    -340.075     400.879
  H       19.391    -336.762     400.225
  H       21.571    -337.945     398.818
  H       20.517    -340.119     398.845
  H       17.884    -338.647     398.280
  H       16.830    -340.521     399.389
  H       17.819    -341.159     398.055
  P       20.683    -340.843     396.393
  C       20.484    -343.286     397.311
  O       19.841    -342.069     396.995
  O       22.039    -340.807     397.241
  O       20.876    -340.839     394.912
  H       21.905    -340.436     398.132
  H       21.509    -343.123     397.656
  H       20.496    -343.924     396.422
  H       19.924    -343.786     398.104
  H       18.579    -343.594     403.694
  H       17.055    -343.696     402.845
  H       17.865    -342.155     403.005

 3  4  5  6  7  8  9  10  11  12  13  23  28  29  30  31  32 0
 6-311+G(2d,p)
 ****
 33  34 0
 6-311+G(2d,p)
 ****
 1  2  14  15  16  17  18  19  20  21  22  24  25  26 0
 3-21G
 ****
 27  35  36  37  38  39  40  41  42  43  44  45 0
 3-21G
 ****


