%nproc=1
%NoSave
%Mem=1900MB
#P OB98/GEN NMR

erre ene a

0 1
  C      193.727     367.640     378.068
  O      192.723     368.639     378.134
  H      194.368     367.851     377.213
  H      193.269     366.657     377.924
  H      194.335     367.642     378.975
  P      191.695     368.618     379.370
  C      189.345     369.321     378.603
  O      190.605     369.765     379.077
  C      188.994     370.019     377.294
  O      188.831     371.438     377.542
  C      190.058     369.867     376.197
  O      189.396     369.722     374.936
  C      190.813     371.174     376.239
  O      191.411     371.496     374.987
  C      189.709     372.154     376.648
  N      192.070     376.546     375.848
  C      191.585     375.622     374.950
  N      191.781     375.889     373.632
  N      190.967     374.529     375.299
  C      190.831     374.394     376.642
  C      191.266     375.244     377.629
  C      191.961     376.439     377.234
  O      192.424     377.297     377.981
  N      190.965     374.746     378.882
  C      190.344     373.605     378.635
  N      190.248     373.335     377.300
  O      192.319     368.691     380.725
  O      190.874     367.263     379.164
  H      190.749     371.310     374.290
  H      191.211     366.562     379.753
  H      192.547     377.374     375.521
  H      189.964     372.926     379.401
  H      189.114     372.507     375.795
  H      191.602     371.132     376.996
  H      192.231     376.720     373.292
  H      190.718     369.000     376.363
  H      191.408     375.225     372.957
  H      188.016     369.645     376.942
  H      188.585     369.558     379.360
  H      189.370     368.231     378.448
  P      190.092     368.848     373.788
  C      189.332     370.585     372.040
  O      189.384     369.207     372.387
  O      190.224     367.382     374.078
  O      191.535     369.537     373.632
  H      192.175     368.858     373.345
  H      188.842     370.697     371.095
  H      190.327     370.974     371.974
  H      188.788     371.121     372.789

 6  7  8  9  10  11  12  13  14  15  26  29  33  34 0
 6-311+G(2d,p)
 ****
 36  38  39  40  41 0
 6-311+G(2d,p)
 ****
 1  2  3  4  5  16  17  18  19  20  21  22  23  24  25 0
 3-21G
 ****
 27  28  30  31  32  35  37  42  43  44  45  46  47 0
 3-21G
 ****
 48  49 0
 3-21G
 ****


