%nproc=1
%NoSave
%Mem=1900MB
#P OB98/GEN NMR

erre ene a

0 1
  C      534.206     260.588      51.987
  O      535.229     259.821      51.380
  H      533.719     261.223      51.243
  H      533.459     259.909      52.415
  H      534.624     261.207      52.788
  P      536.408     260.630      50.656
  C      538.388     259.048      51.261
  O      537.499     259.518      50.257
  C      538.834     257.631      50.917
  O      537.817     256.677      51.289
  C      539.090     257.413      49.418
  O      540.367     257.862      49.004
  C      538.979     255.897      49.335
  O      540.185     255.292      49.831
  C      537.799     255.617      50.290
  N      533.861     252.689      48.813
  C      534.992     252.406      49.511
  N      535.980     253.244      49.880
  C      535.711     254.499      49.471
  C      534.611     254.931      48.755
  C      533.654     253.967      48.419
  N      532.517     254.247      47.675
  N      534.702     256.289      48.497
  C      535.838     256.668      49.058
  N      536.506     255.608      49.630
  O      537.130     261.416      51.861
  O      536.000     261.526      49.536
  H      540.364     255.686      50.702
  H      537.718     262.120      51.510
  H      535.116     251.361      49.809
  H      536.234     257.680      49.064
  H      537.907     254.663      50.818
  H      538.834     255.545      48.305
  H      538.289     257.864      48.815
  H      539.742     257.397      51.496
  H      537.870     259.044      52.230
  H      531.969     253.456      47.362
  H      532.428     255.159      47.259
  H      539.258     259.717      51.321
  P      540.449     258.757      47.677
  C      541.907     260.498      48.942
  O      541.768     259.655      47.800
  O      539.257     259.822      47.884
  O      540.292     257.996      46.395
  H      538.857     260.076      47.030
  H      542.833     261.031      48.881
  H      541.897     259.901      49.830
  H      541.096     261.195      48.972

 6  7  8  9  10  11  12  13  14  15  25  28  32  33  34  35 0
 6-311+G(2d,p)
 ****
 36  39  40 0
 6-311+G(2d,p)
 ****
 1  2  3  4  5  16  17  18  19  20  21  22  23  24 0
 3-21G
 ****
 26  27  29  30  31  37  38  41  42  43  44  45  46  47 0
 3-21G
 ****
 48 0
 3-21G
 ****


