%nproc=1
%NoSave
%Mem=1900MB
#P OB98/GEN NMR

erre ene a

0 1
  C     -270.803     358.320     406.060
  O     -269.438     357.965     406.083
  P     -268.875     356.887     407.124
  C     -268.648     355.082     405.300
  O     -269.256     355.437     406.538
  C     -267.723     353.872     405.487
  O     -266.604     354.272     406.341
  C     -268.426     352.676     406.154
  O     -268.298     351.439     405.443
  C     -267.844     352.683     407.559
  O     -267.954     351.445     408.233
  C     -266.432     353.211     407.305
  N     -265.779     353.670     408.528
  C     -264.387     353.611     408.569
  O     -263.680     353.210     407.645
  N     -263.806     353.979     409.747
  C     -264.463     354.277     410.901
  O     -263.874     354.501     411.952
  C     -265.930     354.291     410.815
  C     -266.511     354.014     409.647
  O     -269.279     357.096     408.544
  O     -267.294     356.941     406.879
  H     -267.658     350.740     407.629
  H     -267.012     356.722     405.974
  H     -262.800     353.939     409.789
  H     -266.478     354.515     411.716
  H     -267.594     354.017     409.547
  H     -265.803     352.454     406.843
  H     -268.408     353.418     408.147
  H     -269.515     352.838     406.211
  H     -267.328     353.602     404.503
  H     -268.064     355.924     404.935
  H     -269.424     354.869     404.554
  P     -269.495     350.410     405.171
  C     -269.441     350.197     402.585
  O     -270.093     350.705     403.722
  O     -270.507     350.311     406.265
  O     -268.741     349.012     404.969
  H     -269.322     348.286     405.250
  H     -269.632     350.857     401.731
  H     -269.843     349.207     402.351
  H     -268.360     350.124     402.739
  H     -270.969     359.051     405.296
  H     -271.082     358.727     407.009
  H     -271.394     357.451     405.857

 3  4  5  6  7  8  9  10  11  12  13  23  28  29  30  31  32 0
 6-311+G(2d,p)
 ****
 33  34 0
 6-311+G(2d,p)
 ****
 1  2  14  15  16  17  18  19  20  21  22  24  25  26  27 0
 3-21G
 ****
 35  36  37  38  39  40  41  42  43  44  45 0
 3-21G
 ****


