%nproc=1
%NoSave
%Mem=1900MB
#P OB98/GEN NMR

erre ene a

0 1
  C     -625.707    -116.008     -56.024
  O     -626.387    -117.063     -56.676
  H     -625.686    -115.138     -56.691
  H     -624.681    -116.303     -55.794
  H     -626.230    -115.735     -55.101
  P     -626.524    -118.444     -55.865
  C     -625.920    -120.204     -57.676
  O     -626.951    -119.559     -56.948
  C     -626.460    -120.751     -58.994
  O     -627.641    -121.569     -58.722
  C     -626.884    -119.662     -59.999
  O     -626.548    -120.094     -61.326
  C     -628.395    -119.633     -59.862
  O     -629.042    -119.106     -61.023
  C     -628.691    -121.109     -59.599
  N     -633.519    -122.002     -60.703
  C     -632.420    -121.899     -61.534
  N     -632.633    -122.054     -62.859
  N     -631.202    -121.656     -61.096
  C     -631.136    -121.556     -59.745
  C     -632.152    -121.630     -58.816
  C     -633.495    -121.866     -59.314
  O     -634.516    -121.949     -58.641
  N     -631.680    -121.433     -57.543
  C     -630.375    -121.248     -57.694
  N     -629.999    -121.316     -59.015
  O     -627.856    -118.230     -54.998
  O     -625.351    -118.813     -55.014
  H     -628.670    -119.554     -61.807
  H     -627.807    -118.737     -54.161
  H     -634.432    -122.170     -61.095
  H     -629.670    -121.049     -56.903
  H     -628.654    -121.714     -60.517
  H     -628.684    -119.013     -58.999
  H     -633.522    -122.268     -63.262
  H     -626.429    -118.689     -59.807
  H     -631.830    -121.989     -63.483
  H     -625.715    -121.425     -59.440
  H     -625.514    -121.027     -57.078
  H     -625.120    -119.482     -57.881
  P     -624.994    -120.104     -61.729
  C     -624.693    -118.069     -63.330
  O     -624.840    -119.487     -63.206
  O     -624.686    -121.660     -61.945
  O     -624.091    -119.514     -60.684
  H     -624.138    -121.991     -61.218
  H     -624.602    -117.809     -64.364
  H     -623.816    -117.754     -62.804
  H     -625.551    -117.584     -62.914

 6  7  8  9  10  11  12  13  14  15  26  29  33  34 0
 6-311+G(2d,p)
 ****
 36  38  39  40  41 0
 6-311+G(2d,p)
 ****
 1  2  3  4  5  16  17  18  19  20  21  22  23  24  25 0
 3-21G
 ****
 27  28  30  31  32  35  37  42  43  44  45  46  47 0
 3-21G
 ****
 48  49 0
 3-21G
 ****


