%nproc=1
%NoSave
%Mem=1900MB
#P OB98/GEN NMR

erre ene a

0 1
  C       42.448    -196.123      41.044
  O       41.535    -195.735      40.041
  H       43.223    -195.357      41.126
  H       42.919    -197.071      40.771
  H       41.953    -196.223      42.013
  P       40.135    -196.503      39.932
  C       38.926    -195.581      42.017
  O       39.025    -195.558      40.601
  C       37.916    -194.537      42.509
  O       37.694    -194.729      43.929
  C       38.449    -193.112      42.329
  O       37.399    -192.163      42.160
  C       39.146    -192.846      43.654
  O       39.279    -191.456      43.948
  C       38.243    -193.599      44.627
  N       39.109    -192.828      49.591
  C       38.478    -192.008      48.677
  N       38.011    -190.829      49.152
  N       38.334    -192.307      47.412
  C       38.910    -193.482      47.066
  C       39.583    -194.370      47.875
  C       39.704    -194.044      49.281
  O       40.274    -194.724      50.127
  N       40.037    -195.452      47.162
  C       39.643    -195.219      45.927
  N       38.934    -194.047      45.822
  O       40.271    -197.687      41.003
  O       39.790    -197.029      38.572
  H       39.656    -191.382      44.844
  H       39.652    -198.409      40.790
  H       39.166    -192.565      50.559
  H       39.831    -195.868      45.081
  H       37.407    -192.966      44.949
  H       40.155    -193.262      43.599
  H       38.274    -190.482      50.061
  H       39.144    -193.024      41.497
  H       37.834    -190.100      48.455
  H       36.949    -194.687      42.014
  H       39.922    -195.366      42.410
  H       38.649    -196.578      42.363
  P       37.223    -191.464      40.730
  C       35.805    -193.143      39.255
  O       35.876    -191.974      40.040
  O       38.379    -192.117      39.842
  O       37.315    -189.970      40.758
  H       39.028    -191.440      39.577
  H       34.803    -193.276      38.903
  H       36.091    -193.988      39.846
  H       36.467    -193.052      38.420

 6  7  8  9  10  11  12  13  14  15  26  29  33  34 0
 6-311+G(2d,p)
 ****
 36  38  39  40  41 0
 6-311+G(2d,p)
 ****
 1  2  3  4  5  16  17  18  19  20  21  22  23  24  25 0
 3-21G
 ****
 27  28  30  31  32  35  37  42  43  44  45  46  47 0
 3-21G
 ****
 48  49 0
 3-21G
 ****


