%nproc=1
%NoSave
%Mem=1900MB
#P OB98/GEN NMR

erre ene a

0 1
  C       44.187      66.814     -21.251
  O       44.187      65.653     -22.056
  H       44.075      67.689     -21.898
  H       45.135      66.896     -20.715
  H       43.358      66.798     -20.539
  P       44.068      64.221     -21.350
  C       43.737      62.853     -23.511
  O       44.592      63.139     -22.413
  C       44.353      61.776     -24.409
  O       45.367      62.402     -25.254
  C       45.043      60.633     -23.637
  O       44.894      59.440     -24.418
  C       46.483      61.110     -23.637
  O       47.372      60.088     -23.269
  C       46.581      61.647     -25.066
  N       47.761      62.469     -25.301
  C       48.749      61.949     -26.129
  O       48.671      60.855     -26.686
  N       49.860      62.733     -26.296
  C       50.073      63.952     -25.724
  O       51.078      64.623     -25.924
  C       49.005      64.436     -24.834
  C       47.915      63.685     -24.667
  O       42.747      63.910     -20.732
  O       45.239      64.241     -20.256
  H       44.868      64.476     -19.385
  H       47.214      59.284     -23.807
  H       50.586      62.371     -26.894
  H       49.154      65.391     -24.348
  H       47.109      64.009     -24.016
  H       46.566      60.826     -25.791
  H       46.614      61.917     -22.910
  H       44.620      60.475     -22.641
  H       43.577      61.388     -25.080
  H       43.594      63.775     -24.082
  H       42.767      62.513     -23.133
  P       44.527      58.012     -23.783
  C       42.813      57.474     -25.632
  O       43.974      57.042     -24.937
  O       43.619      58.099     -22.599
  O       45.928      57.355     -23.369
  H       45.810      56.840     -22.548
  H       42.547      56.746     -26.370
  H       43.011      58.410     -26.110
  H       42.006      57.591     -24.940

 6  7  8  9  10  11  12  13  14  15  16  27  31  32  33  34  35 0
 6-311+G(2d,p)
 ****
 36  37 0
 6-311+G(2d,p)
 ****
 1  2  3  4  5  17  18  19  20  21  22  23  24  25 0
 3-21G
 ****
 26  28  29  30  38  39  40  41  42  43  44  45 0
 3-21G
 ****


