%nproc=1
%NoSave
%Mem=1900MB
#P OB98/GEN NMR

erre ene a

0 1
  C      469.767      24.810      35.049
  O      471.087      24.477      34.628
  P      471.265      23.154      33.739
  C      470.870      24.338      31.464
  O      470.390      23.395      32.416
  C      471.250      23.642      30.160
  O      470.193      22.748      29.750
  C      471.488      24.574      28.985
  O      472.784      25.142      28.994
  C      471.334      23.612      27.815
  O      472.554      22.859      27.652
  C      470.201      22.698      28.296
  N      466.845      22.145      24.475
  C      468.095      21.672      24.648
  N      468.929      21.881      25.688
  C      468.370      22.688      26.600
  C      467.110      23.285      26.535
  C      466.326      22.979      25.415
  N      465.039      23.439      25.260
  N      466.893      24.057      27.656
  C      467.977      23.928      28.383
  N      468.900      23.107      27.791
  O      470.417      22.055      34.545
  O      472.682      22.727      33.522
  H      472.373      22.168      27.004
  H      470.738      21.163      34.324
  H      468.471      21.034      23.848
  H      468.143      24.404      29.345
  H      470.353      21.658      28.009
  H      471.152      24.125      26.869
  H      470.702      25.348      28.925
  H      472.143      23.032      30.351
  H      471.750      24.845      31.868
  H      464.475      23.031      24.517
  H      464.591      23.887      26.049
  H      470.097      25.089      31.281
  P      472.933      26.642      28.404
  C      473.997      27.415      30.642
  O      472.970      27.591      29.693
  O      471.495      26.910      27.766
  O      474.043      26.801      27.428
  H      471.564      27.580      27.052
  H      474.057      28.317      31.272
  H      474.961      27.262      30.166
  H      473.770      26.566      31.289
  H      469.794      25.708      35.630
  H      469.370      24.013      35.643
  H      469.146      24.959      34.191

 3  4  5  6  7  8  9  10  11  12  22  25  29  30  31  32 0
 6-311+G(2d,p)
 ****
 33  36  37 0
 6-311+G(2d,p)
 ****
 1  2  13  14  15  16  17  18  19  20  21  23  24  26 0
 3-21G
 ****
 27  28  34  35  38  39  40  41  42  43  44  45  46  47  48 0
 3-21G
 ****


