%nproc=1
%NoSave
%Mem=1900MB
#P OB98/GEN NMR

erre ene a

0 1
  C      -88.722     -23.884     -65.852
  O      -87.727     -24.124     -66.856
  P      -87.919     -25.455     -67.741
  C      -88.500     -24.519     -70.094
  O      -87.511     -25.107     -69.256
  C      -87.898     -23.975     -71.393
  O      -86.862     -23.014     -71.071
  C      -87.260     -25.036     -72.298
  O      -87.514     -24.683     -73.666
  C      -85.773     -24.859     -72.052
  O      -84.985     -25.355     -73.132
  C      -85.704     -23.346     -71.855
  N      -80.679     -22.888     -72.209
  C      -81.600     -23.263     -73.166
  N      -81.110     -23.584     -74.384
  N      -82.889     -23.319     -72.952
  C      -83.240     -22.941     -71.698
  C      -82.423     -22.539     -70.665
  C      -80.996     -22.523     -70.907
  O      -80.124     -22.251     -70.084
  N      -83.150     -22.235     -69.539
  C      -84.400     -22.460     -69.888
  N      -84.506     -22.897     -71.185
  O      -89.509     -25.629     -67.795
  O      -87.257     -26.661     -67.163
  H      -84.070     -25.052     -72.981
  H      -89.758     -26.511     -67.456
  H      -79.697     -22.883     -72.423
  H      -85.260     -22.349     -69.242
  H      -85.779     -22.815     -72.812
  H      -85.488     -25.401     -71.142
  H      -80.137     -23.499     -74.636
  H      -87.600     -26.059     -72.108
  H      -81.773     -23.816     -75.112
  H      -88.684     -23.436     -71.934
  H      -88.990     -23.701     -69.556
  H      -89.262     -25.274     -70.319
  P      -88.543     -25.619     -74.465
  C      -90.960     -24.826     -73.921
  O      -89.828     -24.708     -74.759
  O      -89.054     -26.646     -73.348
  O      -87.948     -26.314     -75.646
  H      -89.328     -27.486     -73.761
  H      -90.750     -25.413     -73.022
  H      -91.766     -25.312     -74.478
  H      -91.287     -23.827     -73.622
  H      -88.492     -22.978     -65.331
  H      -88.734     -24.700     -65.160
  H      -89.682     -23.795     -66.316

 3  4  5  6  7  8  9  10  11  12  23  26  30  31  33  0
 6-311+G(2d,p)
 ****
 35  36  37  38 0
 6-311+G(2d,p)
 ****
 1  2  13  14  15  16  17  18  19  20  21  22  24  25  27  28  29 0
 3-21G
 ****
 32  34  39  40  41  42  43  44  45  46  47  48  49 0
 3-21G
 ****


