%nproc=1
%NoSave
%Mem=1900MB
#P OB98/GEN NMR

erre ene a

0 1
  C      394.751    -895.070    -665.029
  O      394.083    -896.030    -665.826
  H      394.574    -894.080    -665.457
  H      395.831    -895.270    -665.025
  H      394.364    -895.090    -664.006
  P      394.205    -897.560    -665.355
  C      391.676    -898.100    -665.032
  O      392.939    -897.840    -664.418
  C      390.543    -897.450    -664.223
  O      390.404    -898.160    -662.960
  C      390.789    -895.970    -663.876
  O      389.512    -895.320    -663.768
  C      391.430    -896.090    -662.492
  O      391.450    -894.830    -661.840
  C      390.559    -897.180    -661.899
  N      389.537    -899.210    -657.317
  C      388.732    -898.740    -658.295
  N      389.077    -898.230    -659.491
  C      390.418    -898.240    -659.658
  C      391.359    -898.710    -658.764
  C      390.876    -899.210    -657.533
  N      391.702    -899.670    -656.541
  N      392.635    -898.550    -659.274
  C      392.452    -898.020    -660.466
  N      391.126    -897.800    -660.722
  O      395.434    -897.520    -664.320
  O      394.412    -898.560    -666.446
  H      392.208    -894.300    -662.157
  H      396.253    -897.780    -664.781
  H      387.666    -898.780    -658.083
  H      393.244    -897.760    -661.152
  H      389.557    -896.820    -661.647
  H      392.476    -896.420    -662.574
  H      391.416    -895.440    -664.610
  H      389.598    -897.590    -664.758
  H      391.529    -899.180    -665.079
  H      391.681    -897.690    -666.053
  H      391.276    -900.000    -655.676
  H      392.699    -899.650    -656.666
  P      388.979    -894.420    -664.987
  C      386.514    -895.240    -664.680
  O      387.626    -895.080    -665.545
  O      390.029    -894.800    -666.147
  O      388.948    -892.960    -664.749
  H      390.092    -894.040    -666.772
  H      385.707    -895.693    -665.217
  H      386.206    -894.283    -664.314
  H      386.790    -895.865    -663.857

 6  7  8  9  10  11  12  13  14  15  25  28  32  33  34  35 0
 6-311+G(2d,p)
 ****
 36  37  40 0
 6-311+G(2d,p)
 ****
 1  2  3  4  5  16  17  18  19  20  21  22  23  24 0
 3-21G
 ****
 26  27  29  30  31  38  39 41  42  43  44  45  46  47  48 0
 3-21G
 ****


