%nproc=1
%NoSave
%Mem=1900MB
#P OB98/GEN NMR

erre ene a

0 1
  C     -633.391    -158.841       9.523
  O     -632.416    -159.194      10.478
  H     -634.371    -158.862      10.008
  H     -633.400    -159.554       8.697
  H     -633.208    -157.831       9.147
  P     -630.903    -159.431       9.995
  C     -630.961    -161.396       8.345
  O     -631.029    -159.981       8.484
  C     -631.506    -161.852       6.993
  O     -630.622    -161.405       5.932
  C     -631.650    -163.374       6.863
  O     -632.929    -163.688       6.307
  C     -630.543    -163.759       5.893
  O     -630.821    -164.983       5.222
  C     -630.478    -162.503       5.014
  N     -629.238    -162.409       4.253
  C     -629.268    -162.904       2.946
  O     -630.293    -163.422       2.504
  N     -628.128    -162.839       2.182
  C     -627.035    -162.367       2.699
  N     -625.940    -162.337       1.893
  C     -626.949    -161.874       4.084
  C     -628.075    -161.917       4.799
  O     -630.082    -160.285      10.905
  O     -630.310    -157.957       9.792
  H     -631.310    -164.781       4.393
  H     -629.320    -157.996       9.811
  H     -626.010    -161.496       4.473
  H     -628.102    -161.569       5.824
  H     -631.319    -162.475       4.309
  H     -629.601    -163.878       6.443
  H     -631.547    -163.900       7.812
  H     -632.467    -161.347       6.823
  H     -626.044    -162.682       0.945
  H     -631.525    -161.858       9.162
  H     -625.035    -161.998       2.187
  H     -629.908    -161.698       8.423
  P     -634.114    -163.949       7.364
  C     -633.880    -166.494       6.956
  O     -633.970    -165.450       7.911
  O     -635.422    -163.994       6.443
  O     -634.213    -162.893       8.419
  H     -635.894    -163.147       6.488
  H     -633.789    -167.433       7.461
  H     -633.022    -166.338       6.336
  H     -634.762    -166.500       6.350

 6  7  8  9  10  11  12  13  14  15  16  26  30  31  32  33  35 0
 6-311+G(2d,p)
 ****
 37  38 0
 6-311+G(2d,p)
 ****
 1  2  3  4  5  17  18  19  20  21  22  23  24  25 0
 3-21G
 ****
 27  28  29  34  36  39  40  41  42  43  44  45  46 0
 3-21G
 ****


