%nproc=1
%NoSave
%Mem=1900MB
#P OB98/GEN NMR

erre ene a

0 1
  C      -74.948     213.442     491.814
  O      -73.690     213.431     491.174
  H      -74.913     214.161     492.635
  H      -75.166     212.452     492.220
  H      -75.740     213.737     491.122
  P      -73.555     212.716     489.748
  C      -71.170     211.731     489.851
  O      -72.003     212.763     489.344
  C      -69.727     211.905     489.359
  O      -69.745     212.148     487.926
  C      -69.055     213.117     490.010
  O      -67.639     212.962     490.096
  C      -69.368     214.239     489.032
  O      -68.454     215.333     489.123
  C      -69.314     213.499     487.696
  N      -69.728     217.169     484.177
  C      -68.779     217.008     485.169
  N      -67.804     217.956     485.223
  N      -68.788     216.031     486.037
  C      -69.856     215.208     485.907
  C      -70.874     215.272     484.981
  C      -70.829     216.342     484.007
  O      -71.660     216.543     483.122
  N      -71.788     214.267     485.169
  C      -71.324     213.594     486.205
  N      -70.145     214.112     486.670
  O      -74.207     213.768     488.733
  O      -74.203     211.369     489.637
  H      -67.552     214.962     489.109
  H      -74.497     213.321     487.919
  H      -69.657     217.924     483.520
  H      -71.796     212.722     486.640
  H      -68.289     213.465     487.313
  H      -70.362     214.631     489.264
  H      -67.874     218.816     484.707
  H      -69.452     213.338     490.997
  H      -67.298     218.026     486.111
  H      -69.162     210.978     489.513
  H      -71.586     210.782     489.500
  H      -71.206     211.715     490.942
  P      -66.954     213.021     491.545
  C      -64.712     214.289     490.943
  O      -65.367     213.121     491.392
  O      -67.186     211.556     492.137
  O      -67.504     214.084     492.446
  H      -67.768     211.594     492.921
  H      -63.656     214.120     490.922
  H      -64.930     215.098     491.608
  H      -65.054     214.534     489.959

 6  7  8  9  10  11  12  13  14  15  26  29  33  34 0
 6-311+G(2d,p)
 ****
 36  38  39  40  41 0
 6-311+G(2d,p)
 ****
 1  2  3  4  5  16  17  18  19  20  21  22  23  24  25 0
 3-21G
 ****
 27  28  30  31  32  35  37  42  43  44  45  46  47 0
 3-21G
 ****
 48  49 0
 3-21G
 ****


