%nproc=1
%NoSave
%Mem=1900MB
#P OB98/GEN NMR

erre ene a

0 1
  C     -336.220     -50.984    -404.749
  O     -337.356     -50.701    -405.537
  H     -336.307     -50.452    -403.800
  H     -335.314     -50.647    -405.260
  H     -336.155     -52.059    -404.548
  P     -337.404     -51.376    -406.995
  C     -336.529     -49.319    -408.321
  O     -336.268     -50.641    -407.865
  C     -335.430     -48.854    -409.271
  O     -334.199     -48.609    -408.552
  C     -335.093     -49.847    -410.382
  O     -336.002     -49.734    -411.462
  C     -333.681     -49.416    -410.751
  O     -333.690     -48.271    -411.629
  C     -333.091     -49.047    -409.377
  N     -328.958     -50.283    -406.758
  C     -329.389     -49.055    -407.210
  N     -328.571     -48.001    -406.972
  N     -330.518     -48.864    -407.843
  C     -331.214     -50.009    -408.038
  C     -330.896     -51.286    -407.626
  C     -329.658     -51.473    -406.894
  O     -329.252     -52.528    -406.408
  N     -331.865     -52.184    -407.993
  C     -332.742     -51.463    -408.665
  N     -332.382     -50.139    -408.733
  O     -338.766     -50.812    -407.626
  O     -337.367     -52.867    -407.009
  H     -334.203     -48.488    -412.430
  H     -339.131     -51.478    -408.238
  H     -328.085     -50.363    -406.258
  H     -333.649     -51.848    -409.113
  H     -332.387     -48.206    -409.448
  H     -333.138     -50.206    -411.277
  H     -327.578     -48.125    -406.797
  H     -335.068     -50.872    -409.992
  H     -328.869     -47.097    -407.319
  H     -335.749     -47.894    -409.699
  H     -336.564     -48.645    -407.455
  H     -337.501     -49.296    -408.831
  P     -336.542     -51.088    -412.131
  C     -335.310     -50.718    -414.401
  O     -335.442     -51.520    -413.232
  O     -337.777     -50.600    -413.024
  O     -336.928     -52.161    -411.158
  H     -338.340     -51.362    -413.258
  H     -334.548     -51.128    -415.030
  H     -335.043     -49.720    -414.121
  H     -336.240     -50.703    -414.930

 6  7  8  9  10  11  12  13  14  15  26  29  33  34 0
 6-311+G(2d,p)
 ****
 36  38  39  40  41 0
 6-311+G(2d,p)
 ****
 1  2  3  4  5  16  17  18  19  20  21  22  23  24  25 0
 3-21G
 ****
 27  28  30  31  32  35  37  42  43  44  45  46  47 0
 3-21G
 ****
 48  49 0
 3-21G
 ****


