%nproc=1
%NoSave
%Mem=1900MB
#P OB98/GEN NMR

erre ene a

0 1
  C     -432.275    1093.323    -315.476
  O     -433.542    1093.083    -314.875
  P     -433.810    1093.728    -313.425
  C     -433.384    1091.674    -311.899
  O     -434.351    1092.527    -312.514
  C     -433.989    1090.926    -310.718
  O     -434.371    1091.874    -309.688
  C     -435.253    1090.140    -311.038
  O     -434.955    1088.884    -311.632
  C     -435.854    1089.970    -309.649
  O     -435.216    1088.858    -308.978
  C     -435.485    1091.290    -308.959
  N     -436.886    1095.884    -307.332
  C     -435.682    1095.219    -307.187
  N     -434.698    1095.885    -306.546
  N     -435.461    1094.002    -307.637
  C     -436.511    1093.483    -308.302
  C     -437.764    1094.035    -308.516
  C     -438.016    1095.351    -307.954
  O     -439.075    1095.957    -308.001
  N     -438.564    1093.203    -309.240
  C     -437.801    1092.158    -309.508
  N     -436.558    1092.260    -308.930
  O     -435.114    1094.623    -313.668
  O     -432.684    1094.535    -312.869
  H     -435.217    1088.112    -309.604
  H     -435.153    1095.350    -313.015
  H     -436.990    1096.816    -306.984
  H     -438.115    1091.306    -310.106
  H     -435.131    1091.131    -307.943
  H     -436.929    1089.760    -309.675
  H     -434.772    1096.854    -306.294
  H     -435.940    1090.731    -311.656
  H     -433.794    1095.429    -306.455
  H     -433.207    1090.271    -310.298
  H     -432.538    1092.275    -311.549
  H     -433.017    1090.968    -312.645
  P     -435.794    1088.500    -312.962
  C     -436.322    1086.036    -312.297
  O     -435.588    1086.937    -313.139
  O     -434.926    1089.146    -314.132
  O     -437.208    1089.002    -312.954
  H     -435.500    1089.348    -314.906
  H     -437.333    1086.431    -312.117
  H     -435.792    1085.904    -311.368
  H     -436.412    1085.078    -312.814
  H     -432.235    1092.839    -316.429
  H     -431.502    1092.934    -314.846
  H     -432.135    1094.376    -315.604

 3  4  5  6  7  8  9  10  11  12  23  26  30  31  33  0
 6-311+G(2d,p)
 ****
 35  36  37  38 0
 6-311+G(2d,p)
 ****
 1  2  13  14  15  16  17  18  19  20  21  22  24  25  27  28  29 0
 3-21G
 ****
 32  34  39  40  41  42  43  44  45  46  47  48  49 0
 3-21G
 ****


