%nproc=1
%NoSave
%Mem=1900MB
#P OB98/GEN NMR

erre ene a

0 1
  C      182.950      74.345      62.565
  O      181.812      74.128      61.758
  H      182.732      75.149      63.273
  H      183.797      74.647      61.944
  H      183.204      73.440      63.126
  P      181.848      72.881      60.747
  C      179.988      71.420      61.819
  O      180.369      72.256      60.736
  C      178.463      71.356      61.936
  O      177.984      72.621      62.459
  C      177.758      71.099      60.602
  O      176.639      70.235      60.838
  C      177.254      72.471      60.188
  O      176.126      72.406      59.319
  C      176.982      73.123      61.548
  N      177.014      74.584      61.457
  C      175.867      75.203      60.954
  O      174.898      74.528      60.601
  N      175.865      76.568      60.801
  C      176.945      77.245      61.052
  N      176.888      78.590      60.855
  C      178.197      76.619      61.523
  C      178.160      75.302      61.710
  O      182.703      71.786      61.540
  O      182.409      73.173      59.395
  H      176.418      72.018      58.466
  H      183.214      71.223      60.928
  H      179.080      77.222      61.694
  H      179.033      74.757      62.046
  H      176.000      72.817      61.934
  H      178.053      73.010      59.663
  H      178.409      70.652      59.847
  H      178.204      70.585      62.673
  H      176.016      78.977      60.514
  H      180.398      71.832      62.749
  H      177.680      79.206      60.974
  H      180.401      70.415      61.669
  P      176.318      69.148      59.703
  C      176.701      67.236      61.422
  O      175.852      67.791      60.423
  O      177.763      68.788      59.112
  O      175.395      69.649      58.638
  H      177.861      69.169      58.220
  H      176.260      66.340      61.807
  H      176.826      67.942      62.216
  H      177.655      67.009      60.993

 6  7  8  9  10  11  12  13  14  15  16  26  30  31  32  33  35 0
 6-311+G(2d,p)
 ****
 37  38 0
 6-311+G(2d,p)
 ****
 1  2  3  4  5  17  18  19  20  21  22  23  24  25 0
 3-21G
 ****
 27  28  29  34  36  39  40  41  42  43  44  45  46 0
 3-21G
 ****


