%nproc=1
%NoSave
%Mem=1900MB
#P OB98/GEN NMR

erre ene a

0 1
  C      199.437      94.039    -107.168
  O      198.030      94.268    -107.014
  P      197.371      95.735    -107.003
  C      196.856      95.684    -104.477
  O      197.510      96.369    -105.533
  C      196.749      96.548    -103.212
  O      198.053      96.642    -102.555
  C      196.264      97.991    -103.465
  O      195.408      98.335    -102.370
  C      197.569      98.779    -103.423
  O      197.390     100.165    -103.211
  C      198.275      98.042    -102.276
  N      199.703      98.320    -102.136
  C      200.076      99.491    -101.461
  O      199.238     100.290    -101.047
  N      201.417      99.749    -101.286
  C      202.306      98.921    -101.744
  N      203.615      99.230    -101.522
  C      201.960      97.687    -102.477
  C      200.656      97.452    -102.632
  O      195.972      95.768    -107.531
  O      198.335      96.644    -107.907
  H      197.796      97.294    -108.400
  H      198.268     100.570    -103.093
  H      202.729      97.022    -102.836
  H      200.317      96.552    -103.136
  H      197.765      98.266    -101.329
  H      198.088      98.644    -104.378
  H      195.705      98.108    -104.400
  H      196.079      96.041    -102.505
  H      203.812     100.084    -101.007
  H      197.431      94.783    -104.235
  H      204.386      98.656    -101.829
  H      195.855      95.375    -104.812
  P      193.895      98.793    -102.657
  C      194.720     101.202    -103.234
  O      193.951     100.076    -103.620
  O      193.479      99.457    -101.256
  O      192.930      97.708    -103.023
  H      192.508      99.409    -101.153
  H      195.290     101.554    -104.099
  H      195.417     100.973    -102.421
  H      194.040     102.002    -102.911
  H      199.632      92.987    -107.143
  H      199.966      94.518    -106.371
  H      199.763      94.440    -108.105

 3  4  5  6  7  8  9  10  11  12  13  24  27  28  29  30  32 0
 6-311+G(2d,p)
 ****
 34  35 0
 6-311+G(2d,p)
 ****
 1  2  14  15  16  17  18  19  20  21  22  23  25  26 0
 3-21G
 ****
 31  33  36  37  38  39  40  41  42  43  44  45  46 0
 3-21G
 ****


