%nproc=1
%NoSave
%Mem=1900MB
#P OB98/GEN NMR

erre ene a

0 1
  C     -206.617      49.244    -112.473
  O     -205.289      48.809    -112.178
  P     -204.850      48.047    -110.846
  C     -203.594      48.747    -108.642
  O     -203.870      48.999    -110.015
  C     -202.385      49.568    -108.163
  O     -201.190      49.079    -108.853
  C     -202.519      51.059    -108.487
  O     -202.091      51.912    -107.428
  C     -201.790      51.184    -109.816
  O     -201.390      52.514    -110.119
  C     -200.666      50.161    -109.660
  N     -197.421      50.802    -113.548
  C     -197.709      51.651    -112.499
  N     -197.067      52.841    -112.489
  N     -198.569      51.374    -111.558
  C     -199.200      50.194    -111.728
  C     -199.009      49.269    -112.732
  C     -198.019      49.564    -113.746
  O     -197.709      48.836    -114.682
  N     -199.826      48.176    -112.571
  C     -200.523      48.446    -111.482
  N     -200.173      49.661    -110.929
  O     -204.421      46.629    -111.016
  O     -206.191      48.044    -109.948
  H     -200.999      52.510    -111.015
  H     -206.163      47.222    -109.419
  H     -196.731      51.057    -114.236
  H     -201.273      47.806    -111.043
  H     -199.799      50.581    -109.145
  H     -202.487      50.872    -110.604
  H     -196.486      53.169    -113.248
  H     -203.572      51.335    -108.628
  H     -197.444      53.542    -111.851
  H     -202.250      49.397    -107.089
  H     -203.372      47.678    -108.570
  H     -204.474      48.948    -108.031
  P     -202.979      52.783    -106.425
  C     -204.349      54.946    -106.476
  O     -203.625      54.000    -107.236
  O     -201.923      53.509    -105.463
  O     -203.958      51.987    -105.614
  H     -202.071      53.224    -104.537
  H     -204.951      55.562    -107.156
  H     -203.655      55.594    -105.938
  H     -205.017      54.452    -105.765
  H     -206.631      49.725    -113.428
  H     -206.942      49.933    -111.722
  H     -207.274      48.399    -112.490

 3  4  5  6  7  8  9  10  11  12  23  26  30  31 0
 6-311+G(2d,p)
 ****
 33  35  36  37  38 0
 6-311+G(2d,p)
 ****
 1  2  13  14  15  16  17  18  19  20  21  22  24  25 0
 3-21G
 ****
 27  28  29  32  34  39  40  41  42  43  44  45  46  47  48  49 0
 3-21G
 ****


