%nproc=1
%NoSave
%Mem=1900MB
#P OB98/GEN NMR

erre ene a

0 1
  C      164.302    -137.752    -115.376
  O      163.299    -138.682    -115.735
  H      164.195    -137.516    -114.314
  H      164.192    -136.831    -115.956
  H      165.291    -138.185    -115.545
  P      163.259    -139.135    -117.274
  C      163.814    -141.337    -118.493
  O      163.615    -140.702    -117.236
  C      164.652    -142.605    -118.325
  O      165.971    -142.228    -117.858
  C      164.064    -143.592    -117.313
  O      164.272    -144.923    -117.781
  C      164.894    -143.356    -116.063
  O      164.929    -144.498    -115.211
  C      166.247    -142.970    -116.657
  N      168.827    -143.062    -112.258
  C      168.272    -144.043    -113.001
  N      167.614    -143.932    -114.174
  C      167.600    -142.653    -114.591
  C      168.119    -141.548    -113.941
  C      168.754    -141.788    -112.711
  N      169.300    -140.792    -111.935
  N      167.866    -140.399    -114.665
  C      167.218    -140.807    -115.741
  N      167.019    -142.160    -115.731
  O      164.081    -138.317    -118.211
  O      161.688    -139.146    -117.568
  H      165.547    -144.313    -114.474
  H      161.190    -139.561    -116.839
  H      168.362    -145.049    -112.599
  H      166.862    -140.166    -116.539
  H      166.858    -143.842    -116.916
  H      164.469    -142.522    -115.491
  H      163.002    -143.424    -117.133
  H      164.784    -143.072    -119.307
  H      164.321    -140.654    -119.184
  H      169.750    -141.053    -111.072
  H      169.271    -139.837    -112.264
  H      162.832    -141.583    -118.906
  P      162.995    -145.781    -118.232
  C      161.969    -146.594    -120.457
  O      162.829    -145.652    -119.824
  O      161.751    -145.569    -117.438
  O      163.520    -147.289    -118.071
  H      162.788    -147.845    -117.741
  H      161.944    -146.403    -121.509
  H      160.982    -146.503    -120.054
  H      162.335    -147.584    -120.283

 6  7  8  9  10  11  12  13  14  15  25  28  32  33  34  35 0
 6-311+G(2d,p)
 ****
 36  39  40 0
 6-311+G(2d,p)
 ****
 1  2  3  4  5  16  17  18  19  20  21  22  23  24 0
 3-21G
 ****
 26  27  29  30  31  37  38  41  42  43  44  45  46  47 0
 3-21G
 ****
 48 0
 3-21G
 ****


