%nproc=1
%NoSave
%Mem=1900MB
#P OB98/GEN NMR

erre ene a

0 1
  C       49.515    -419.407    -892.910
  O       50.542    -420.100    -893.590
  H       48.664    -420.068    -892.730
  H       49.902    -419.071    -891.940
  H       49.191    -418.539    -893.490
  P       50.183    -420.681    -895.040
  C       49.029    -422.771    -894.030
  O       50.052    -422.279    -894.870
  C       49.044    -424.305    -894.060
  O       48.800    -424.791    -895.400
  C       50.385    -424.924    -893.610
  O       50.506    -424.980    -892.220
  C       50.231    -426.310    -894.220
  O       49.365    -427.117    -893.400
  C       49.565    -426.014    -895.580
  N       53.695    -427.970    -897.880
  C       52.985    -428.350    -896.800
  N       51.906    -427.781    -896.240
  C       51.559    -426.678    -896.920
  C       52.173    -426.142    -898.040
  C       53.307    -426.854    -898.530
  N       54.029    -426.443    -899.640
  N       51.556    -424.982    -898.440
  C       50.546    -424.833    -897.600
  N       50.521    -425.826    -896.660
  O       51.548    -420.512    -895.850
  O       49.021    -420.030    -895.730
  H       49.845    -427.295    -892.580
  H       51.368    -420.533    -896.820
  H       53.351    -429.274    -896.320
  H       49.823    -424.026    -897.630
  H       48.858    -426.798    -895.880
  H       51.186    -426.843    -894.300
  H       51.228    -424.412    -894.090
  H       48.222    -424.663    -893.400
  H       48.053    -422.418    -894.390
  H       54.908    -426.902    -899.780
  H       53.822    -425.524    -900.000
  H       49.181    -422.402    -893.000
  P       51.696    -424.118    -891.550
  C       53.775    -425.416    -892.390
  O       52.906    -425.136    -891.290
  O       51.133    -423.811    -890.070
  O       52.026    -422.857    -892.290
  H       51.517    -422.993    -889.700
  H       54.533    -426.105    -892.080
  H       54.233    -424.508    -892.723
  H       53.210    -425.844    -893.191

 6  7  8  9  10  11  12  13  14  15  25  28  32  33  34  35 0
 6-311+G(2d,p)
 ****
 36  39  40 0
 6-311+G(2d,p)
 ****
 1  2  3  4  5  16  17  18  19  20  21  22  23  24 0
 3-21G
 ****
 26  27  29  30  31  37  38  41  42  43  44  45  46  47 0
 3-21G
 ****
 48 0
 3-21G
 ****


