%nproc=1
%NoSave
%Mem=1900MB
#P OB98/GEN NMR

erre ene a

0 1
  C     -562.664     527.263     115.448
  O     -563.893     526.723     115.028
  P     -564.357     525.231     115.361
  C     -563.562     524.066     113.172
  O     -563.385     524.212     114.579
  C     -563.258     522.637     112.675
  O     -561.835     522.424     112.684
  C     -563.857     521.608     113.636
  O     -565.219     521.239     113.518
  C     -562.874     520.445     113.630
  O     -563.276     519.382     112.767
  C     -561.573     521.085     113.140
  N     -558.595     518.373     116.220
  C     -559.342     517.946     115.142
  N     -559.446     516.612     114.990
  N     -559.945     518.766     114.310
  C     -559.817     520.067     114.654
  C     -559.098     520.616     115.688
  C     -558.403     519.703     116.578
  O     -557.797     520.039     117.595
  N     -559.261     521.968     115.774
  C     -560.115     522.250     114.815
  N     -560.514     521.128     114.134
  O     -565.832     524.958     115.352
  O     -563.845     525.074     116.888
  H     -562.696     518.616     112.942
  H     -564.488     524.501     117.349
  H     -558.226     517.698     116.883
  H     -560.506     523.243     114.585
  H     -561.184     520.534     112.272
  H     -562.788     520.014     114.635
  H     -559.128     515.963     115.686
  H     -563.790     522.035     114.648
  H     -560.125     516.266     114.314
  H     -563.568     522.509     111.640
  H     -562.908     524.797     112.685
  H     -564.586     524.320     112.912
  P     -566.135     520.619     114.676
  C     -566.284     518.213     113.788
  O     -565.784     519.056     114.812
  O     -567.611     520.584     114.035
  O     -566.135     521.381     115.955
  H     -568.283     520.566     114.753
  H     -566.255     517.182     114.136
  H     -565.650     518.312     112.896
  H     -567.310     518.478     113.536
  H     -562.582     528.273     115.104
  H     -561.862     526.682     115.043
  H     -562.613     527.245     116.517

 3  4  5  6  7  8  9  10  11  12  23  26  30  31 0
 6-311+G(2d,p)
 ****
 33  35  36  37  38 0
 6-311+G(2d,p)
 ****
 1  2  13  14  15  16  17  18  19  20  21  22  24  25 0
 3-21G
 ****
 27  28  29  32  34  39  40  41  42  43  44  45  46  47  48  49 0
 3-21G
 ****


