%nproc=1
%NoSave
%Mem=1900MB
#P OB98/GEN NMR

erre ene a

0 1
  C      257.746    -171.764     396.806
  O      256.877    -171.923     395.703
  H      257.431    -172.446     397.604
  H      257.706    -170.738     397.183
  H      258.773    -172.013     396.514
  P      257.109    -170.926     394.463
  C      255.461    -169.124     395.375
  O      256.808    -169.472     395.077
  C      255.223    -167.651     395.037
  O      253.818    -167.338     395.067
  C      255.887    -166.671     396.006
  O      257.271    -166.518     395.760
  C      255.107    -165.408     395.685
  O      255.580    -164.854     394.439
  C      253.673    -165.962     395.538
  N      252.909    -165.927     396.785
  C      252.589    -164.655     397.282
  O      252.952    -163.635     396.693
  N      251.891    -164.564     398.470
  C      251.537    -165.639     399.094
  N      250.858    -165.496     400.271
  C      251.836    -166.992     398.600
  C      252.523    -167.067     397.456
  O      255.841    -171.183     393.524
  O      258.426    -171.049     393.764
  H      255.263    -163.933     394.406
  H      255.827    -170.525     392.787
  H      251.531    -167.871     399.159
  H      252.779    -168.028     397.029
  H      253.119    -165.418     394.765
  H      255.225    -164.632     396.447
  H      255.688    -166.950     397.051
  H      255.575    -167.485     394.002
  H      250.721    -164.557     400.619
  H      255.284    -169.296     396.443
  H      250.706    -166.258     400.914
  H      254.770    -169.747     394.791
  P      258.262    -166.613     397.034
  C      258.184    -164.013     397.117
  O      258.115    -165.234     397.851
  O      259.710    -166.496     396.365
  O      258.112    -167.861     397.857
  H      260.352    -167.089     396.816
  H      258.071    -163.187     397.788
  H      257.401    -163.990     396.388
  H      259.132    -163.946     396.625

 6  7  8  9  10  11  12  13  14  15  16  26  30  31  32  33  35 0
 6-311+G(2d,p)
 ****
 37  38 0
 6-311+G(2d,p)
 ****
 1  2  3  4  5  17  18  19  20  21  22  23  24  25 0
 3-21G
 ****
 27  28  29  34  36  39  40  41  42  43  44  45  46 0
 3-21G
 ****


