%nproc=1
%NoSave
%Mem=1900MB
#P OB98/GEN NMR

erre ene a

0 1
  C      149.341     165.943    -157.898
  O      148.341     166.820    -158.377
  H      149.292     165.010    -158.463
  H      149.170     165.722    -156.841
  H      150.335     166.382    -158.029
  P      148.377     168.333    -157.851
  C      148.489     169.563    -160.143
  O      147.705     169.234    -159.003
  C      147.613     170.242    -161.198
  O      146.631     169.276    -161.674
  C      146.841     171.463    -160.679
  O      146.772     172.433    -161.731
  C      145.452     170.909    -160.425
  O      144.425     171.892    -160.440
  C      145.331     169.892    -161.567
  N      144.292     168.894    -161.322
  C      143.295     168.758    -162.284
  O      143.271     169.356    -163.358
  N      142.287     167.885    -161.968
  C      142.167     167.172    -160.810
  O      141.226     166.421    -160.579
  C      143.247     167.364    -159.829
  C      144.241     168.202    -160.126
  O      149.929     168.711    -157.946
  O      147.815     168.555    -156.487
  H      150.386     168.488    -157.113
  H      144.683     172.592    -159.799
  H      141.555     167.775    -162.657
  H      143.180     166.823    -158.895
  H      145.042     168.385    -159.415
  H      145.135     170.406    -162.514
  H      145.423     170.404    -159.450
  H      147.274     171.917    -159.782
  H      148.241     170.509    -162.057
  H      148.915     168.650    -160.565
  H      149.305     170.228    -159.839
  P      146.954     173.975    -161.324
  C      149.143     174.574    -162.638
  O      147.726     174.657    -162.555
  O      148.060     173.862    -160.173
  O      145.678     174.626    -160.914
  H      148.708     173.156    -160.337
  H      149.479     175.082    -163.518
  H      149.438     173.547    -162.685
  H      149.578     175.031    -161.774

 6  7  8  9  10  11  12  13  14  15  16  27  31  32  33  34  35 0
 6-311+G(2d,p)
 ****
 36  37 0
 6-311+G(2d,p)
 ****
 1  2  3  4  5  17  18  19  20  21  22  23  24  25 0
 3-21G
 ****
 26  28  29  30  38  39  40  41  42  43  44  45 0
 3-21G
 ****


