%nproc=1
%NoSave
%Mem=1900MB
#P OB98/GEN NMR

erre ene a

0 1
  C     -182.100     607.905      28.398
  O     -180.913     608.439      28.972
  P     -179.525     607.712      28.644
  C     -178.637     610.141      28.705
  O     -178.382     608.782      28.987
  C     -177.612     610.705      27.725
  O     -177.693     610.005      26.464
  C     -177.775     612.176      27.397
  O     -177.209     613.021      28.375
  C     -176.978     612.275      26.094
  O     -175.578     612.338      26.387
  C     -177.323     610.942      25.422
  N     -178.571     612.448      20.692
  C     -177.421     612.546      21.387
  N     -177.170     612.135      22.648
  C     -178.274     611.599      23.209
  C     -179.524     611.466      22.619
  C     -179.656     611.902      21.301
  N     -180.824     611.775      20.580
  N     -180.392     610.867      23.507
  C     -179.693     610.639      24.594
  N     -178.397     611.054      24.456
  O     -179.517     607.654      27.043
  O     -179.368     606.352      29.252
  H     -175.448     613.087      27.005
  H     -178.929     606.932      26.735
  H     -176.593     613.015      20.872
  H     -180.081     610.167      25.492
  H     -176.449     610.510      24.896
  H     -177.224     613.161      25.509
  H     -178.834     612.424      27.194
  H     -176.601     610.516      28.152
  H     -178.611     610.722      29.635
  H     -180.788     611.949      19.583
  H     -181.567     611.198      20.960
  H     -179.655     610.235      28.279
  P     -177.510     614.601      28.231
  C     -177.675     614.622      30.837
  O     -177.153     615.223      29.667
  O     -179.109     614.656      28.178
  O     -176.874     615.237      27.054
  H     -179.404     615.462      27.711
  H     -177.103     614.953      31.698
  H     -177.616     613.536      30.778
  H     -178.731     614.932      30.968
  H     -182.940     608.492      28.705
  H     -182.232     606.895      28.726
  H     -182.021     607.926      27.331

 3  4  5  6  7  8  9  10  11  12  22  25  29  30  31  32 0
 6-311+G(2d,p)
 ****
 33  36  37 0
 6-311+G(2d,p)
 ****
 1  2  13  14  15  16  17  18  19  20  21  23  24  26 0
 3-21G
 ****
 27  28  34  35  38  39  40  41  42  43  44  45  46  47  48 0
 3-21G
 ****


