%nproc=1
%NoSave
%Mem=1900MB
#P OB98/GEN NMR

erre ene a

0 1
  C     2315.662    1000.628    -898.050
  O     2314.840    1001.708    -897.630
  P     2313.761    1002.260    -898.720
  C     2311.783    1002.249    -897.010
  O     2312.338    1001.720    -898.200
  C     2311.273    1001.100    -896.140
  O     2312.432    1000.345    -895.610
  C     2310.520    1001.543    -894.920
  O     2309.208    1001.980    -895.230
  C     2310.591    1000.286    -894.020
  O     2309.589     999.354    -894.450
  C     2311.998     999.750    -894.340
  N     2312.953    1000.023    -893.290
  C     2312.901     999.210    -892.190
  O     2312.062     998.275    -892.030
  N     2313.784     999.486    -891.180
  C     2314.713    1000.520    -891.180
  O     2315.503    1000.651    -890.250
  C     2314.684    1001.342    -892.350
  C     2313.844    1001.136    -893.310
  O     2314.097    1001.345    -900.000
  O     2313.868    1003.738    -898.950
  H     2314.361    1000.455    -899.760
  H     2308.711     999.826    -894.310
  H     2313.753     998.876    -890.350
  H     2315.418    1002.181    -892.360
  H     2313.805    1001.736    -894.200
  H     2311.939     998.686    -894.490
  H     2310.388    1000.524    -892.970
  H     2311.042    1002.353    -894.400
  H     2310.683    1000.408    -896.710
  H     2310.936    1002.884    -897.240
  H     2312.523    1002.860    -896.490
  P     2308.936    1003.566    -895.230
  C     2307.821    1004.082    -897.550
  O     2308.984    1004.071    -896.740
  O     2310.279    1004.119    -894.570
  O     2307.678    1003.950    -894.450
  H     2311.082    1003.688    -894.950
  H     2307.982    1004.793    -898.370
  H     2306.961    1004.453    -896.960
  H     2307.637    1003.084    -897.920
  H     2316.325    1000.355    -897.256
  H     2316.233    1000.926    -898.905
  H     2315.047     999.790    -898.306

 3  4  5  6  7  8  9  10  11  12  13  24  28  29  30  31  32 0
 6-311+G(2d,p)
 ****
 33  34 0
 6-311+G(2d,p)
 ****
 1  2  14  15  16  17  18  19  20  21  22  23  25  26  27 0
 3-21G
 ****
 35  36  37  38  39  40  41  42  43  44  45 0
 3-21G
 ****


