%nproc=1
%NoSave
%Mem=1900MB
#P OB98/GEN NMR

erre ene a

0 1
  C      -29.261     -17.969      21.713
  O      -30.643     -17.837      21.992
  P      -31.669     -17.763      20.762
  C      -32.180     -19.407      18.778
  O      -31.273     -18.955      19.766
  C      -31.438     -19.708      17.472
  O      -30.915     -18.464      16.930
  C      -30.258     -20.675      17.621
  O      -30.203     -21.466      16.427
  C      -29.063     -19.741      17.696
  O      -27.845     -20.379      17.348
  C      -29.501     -18.641      16.723
  N      -28.792     -17.376      16.918
  C      -27.404     -17.386      16.820
  O      -26.741     -18.397      16.600
  N      -26.786     -16.178      17.013
  C      -27.396     -15.006      17.353
  O      -26.791     -13.958      17.532
  C      -28.858     -15.067      17.491
  C      -29.477     -16.226      17.261
  O      -31.161     -16.445      20.014
  O      -33.101     -17.741      21.175
  H      -30.196     -16.334      20.052
  H      -27.139     -19.708      17.360
  H      -25.783     -16.155      16.910
  H      -29.378     -14.161      17.774
  H      -30.554     -16.296      17.357
  H      -29.367     -18.980      15.689
  H      -28.967     -19.356      18.718
  H      -30.356     -21.327      18.493
  H      -32.163     -20.098      16.747
  H      -32.929     -18.633      18.591
  H      -32.700     -20.297      19.145
  P      -29.843     -23.028      16.566
  C      -30.545     -24.892      18.263
  O      -30.387     -23.519      17.988
  O      -28.259     -22.932      16.803
  O      -30.201     -23.864      15.382
  H      -28.017     -22.281      17.481
  H      -30.592     -25.032      19.346
  H      -29.708     -25.477      17.873
  H      -31.478     -25.250      17.821
  H      -28.713     -18.004      22.632
  H      -28.932     -17.131      21.134
  H      -29.093     -18.871      21.163

 3  4  5  6  7  8  9  10  11  12  13  24  28  29  30  31  32 0
 6-311+G(2d,p)
 ****
 33  34 0
 6-311+G(2d,p)
 ****
 1  2  14  15  16  17  18  19  20  21  22  23  25  26  27 0
 3-21G
 ****
 35  36  37  38  39  40  41  42  43  44  45 0
 3-21G
 ****


