%nproc=1
%NoSave
%Mem=1900MB
#P OB98/GEN NMR

erre ene a

0 1
  C     -220.792    -207.199    -339.559
  O     -220.287    -208.280    -338.805
  H     -221.109    -206.409    -338.873
  H     -221.660    -207.518    -340.148
  H     -220.021    -206.799    -340.222
  P     -219.791    -209.595    -339.584
  C     -220.751    -211.989    -339.709
  O     -221.043    -210.603    -339.592
  C     -222.049    -212.791    -339.858
  O     -222.877    -212.628    -338.697
  C     -222.901    -212.381    -341.061
  O     -222.411    -212.991    -342.250
  C     -224.252    -212.936    -340.637
  O     -224.272    -214.363    -340.834
  C     -224.265    -212.612    -339.135
  N     -228.470    -209.763    -339.176
  C     -228.229    -210.997    -339.744
  N     -229.246    -211.539    -340.458
  N     -227.095    -211.646    -339.645
  C     -226.154    -210.953    -338.966
  C     -226.260    -209.718    -338.367
  C     -227.543    -209.045    -338.429
  O     -227.800    -207.959    -337.914
  N     -225.056    -209.294    -337.852
  C     -224.238    -210.298    -338.089
  N     -224.847    -211.328    -338.776
  O     -218.520    -210.213    -339.088
  O     -219.684    -209.130    -341.109
  H     -224.213    -214.522    -341.795
  H     -218.785    -208.820    -341.320
  H     -229.364    -209.309    -339.293
  H     -223.198    -210.339    -337.788
  H     -224.797    -213.376    -338.554
  H     -225.082    -212.517    -341.215
  H     -230.089    -211.025    -340.694
  H     -222.969    -211.295    -341.151
  H     -229.073    -212.410    -340.933
  H     -221.778    -213.852    -339.920
  H     -220.212    -212.296    -338.807
  H     -220.106    -212.170    -340.579
  P     -222.430    -212.212    -343.658
  C     -224.194    -212.139    -345.549
  O     -223.955    -212.288    -344.160
  O     -221.415    -212.679    -344.646
  O     -222.287    -210.664    -343.257
  H     -221.348    -210.386    -343.142
  H     -225.244    -212.210    -345.740
  H     -223.681    -212.911    -346.084
  H     -223.837    -211.183    -345.872

 6  7  8  9  10  11  12  13  14  15  26  29  33  34 0
 6-311+G(2d,p)
 ****
 36  38  39  40  41 0
 6-311+G(2d,p)
 ****
 1  2  3  4  5  16  17  18  19  20  21  22  23  24  25 0
 3-21G
 ****
 27  28  30  31  32  35  37  42  43  44  45  46  47 0
 3-21G
 ****
 48  49 0
 3-21G
 ****


