%nproc=1
%NoSave
%Mem=1900MB
#P OB98/GEN NMR

erre ene a

0 1
  C      105.997     898.040    -277.305
  O      105.011     897.162    -276.796
  H      106.981     897.599    -277.136
  H      105.952     899.015    -276.813
  H      105.866     898.164    -278.392
  P      103.470     897.604    -276.895
  C      103.007     895.566    -278.410
  O      102.644     896.258    -277.228
  C      102.171     894.291    -278.552
  O      102.566     893.328    -277.562
  C      100.664     894.505    -278.368
  O      100.085     894.982    -279.572
  C      100.224     893.086    -278.047
  O      100.197     892.291    -279.245
  C      101.373     892.614    -277.126
  N       99.419     890.783    -272.795
  C       99.309     890.305    -274.084
  N       98.545     889.213    -274.262
  N       99.887     890.855    -275.130
  C      100.562     892.002    -274.822
  C      100.718     892.580    -273.584
  C      100.141     891.933    -272.431
  O      100.233     892.291    -271.270
  N      101.392     893.781    -273.677
  C      101.682     893.895    -274.963
  N      101.177     892.841    -275.708
  O      103.172     898.755    -277.811
  O      103.054     897.919    -275.380
  H       99.417     892.593    -279.768
  H      103.181     898.859    -275.164
  H       98.945     890.327    -272.041
  H      102.236     894.707    -275.402
  H      101.576     891.537    -277.243
  H       99.235     893.044    -277.600
  H       97.968     888.815    -273.521
  H      100.453     895.150    -277.517
  H       98.408     888.868    -275.209
  H      102.398     893.846    -279.547
  H      104.074     895.311    -278.342
  H      102.853     896.191    -279.304
  P       98.926     896.090    -279.561
  C       99.923     898.158    -280.748
  O       99.155     896.975    -280.890
  O       98.812     896.879    -278.305
  O       97.603     895.279    -279.942
  H       97.165     894.846    -279.159
  H      100.000     898.649    -281.695
  H      100.902     897.908    -280.396
  H       99.447     898.810    -280.046

 6  7  8  9  10  11  12  13  14  15  26  29  33  34 0
 6-311+G(2d,p)
 ****
 36  38  39  40  41 0
 6-311+G(2d,p)
 ****
 1  2  3  4  5  16  17  18  19  20  21  22  23  24  25 0
 3-21G
 ****
 27  28  30  31  32  35  37  42  43  44  45  46  47 0
 3-21G
 ****
 48  49 0
 3-21G
 ****


