%nproc=1
%NoSave
%Mem=1900MB
#P OB98/GEN NMR

erre ene a

0 1
  C       45.408      -0.750     -61.144
  O       45.550       0.335     -62.038
  H       44.978      -1.595     -61.684
  H       44.735      -0.473     -60.330
  H       46.380      -1.043     -60.741
  P       46.253       1.660     -61.465
  C       44.364       2.234     -59.784
  O       45.066       2.618     -60.957
  C       43.648       3.433     -59.166
  O       44.646       4.395     -58.711
  C       42.706       4.172     -60.130
  O       41.585       4.648     -59.375
  C       43.533       5.373     -60.557
  O       42.731       6.444     -61.048
  C       44.266       5.675     -59.251
  N       45.700      10.468     -59.773
  C       44.454       9.927     -59.522
  N       43.429      10.796     -59.389
  N       44.232       8.645     -59.411
  C       45.354       7.895     -59.533
  C       46.639       8.306     -59.787
  C       46.868       9.728     -59.935
  O       47.944      10.265     -60.177
  N       47.494       7.234     -59.869
  C       46.725       6.180     -59.663
  N       45.419       6.530     -59.455
  O       46.777       2.380     -62.794
  O       47.351       1.428     -60.483
  H       43.306       7.232     -61.144
  H       47.702       2.127     -62.973
  H       45.814      11.463     -59.863
  H       47.059       5.152     -59.658
  H       43.623       6.180     -58.519
  H       44.239       5.086     -61.346
  H       43.533      11.798     -59.415
  H       42.357       3.568     -60.972
  H       42.516      10.421     -59.161
  H       43.108       3.096     -58.275
  H       45.079       1.830     -59.058
  H       43.637       1.456     -60.037
  P       40.268       3.739     -59.330
  C       39.908       4.274     -61.849
  O       39.329       4.161     -60.559
  O       39.476       4.322     -58.065
  O       40.535       2.277     -59.188
  H       38.919       3.624     -57.674
  H       39.156       4.561     -62.554
  H       40.325       3.332     -62.137
  H       40.680       5.015     -61.830

 6  7  8  9  10  11  12  13  14  15  26  29  33  34 0
 6-311+G(2d,p)
 ****
 36  38  39  40  41 0
 6-311+G(2d,p)
 ****
 1  2  3  4  5  16  17  18  19  20  21  22  23  24  25 0
 3-21G
 ****
 27  28  30  31  32  35  37  42  43  44  45  46  47 0
 3-21G
 ****
 48  49 0
 3-21G
 ****


