%nproc=1
%NoSave
%Mem=1900MB
#P OB98/GEN NMR

erre ene a

0 1
  C      328.633    -233.779    -300.820
  O      327.350    -233.187    -300.881
  H      329.387    -232.987    -300.838
  H      328.802    -234.441    -301.671
  H      328.744    -234.341    -299.885
  P      326.087    -234.151    -301.125
  C      325.421    -235.828    -302.972
  O      326.283    -234.758    -302.600
  C      325.421    -236.030    -304.490
  O      326.776    -236.102    -304.979
  C      324.768    -237.329    -304.939
  O      323.365    -237.365    -304.750
  C      325.342    -237.522    -306.330
  O      324.615    -236.837    -307.346
  C      326.753    -236.894    -306.185
  N      327.803    -237.907    -306.188
  C      328.068    -238.498    -307.423
  O      327.451    -238.220    -308.456
  N      329.041    -239.458    -307.429
  C      329.725    -239.909    -306.332
  O      330.560    -240.803    -306.397
  C      329.385    -239.261    -305.056
  C      328.454    -238.308    -305.042
  O      324.739    -233.526    -300.903
  O      326.380    -235.406    -300.177
  H      323.697    -237.158    -307.305
  H      325.559    -235.942    -300.029
  H      329.251    -239.888    -308.314
  H      329.907    -239.598    -304.166
  H      328.188    -237.814    -304.110
  H      326.950    -236.205    -307.017
  H      325.363    -238.582    -306.611
  H      325.170    -238.140    -304.321
  H      324.938    -235.164    -304.955
  H      324.405    -235.570    -302.643
  H      325.734    -236.747    -302.465
  P      322.491    -238.686    -304.914
  C      321.785    -240.271    -306.852
  O      322.559    -239.145    -306.457
  O      321.173    -238.715    -304.222
  O      323.435    -239.784    -304.202
  H      322.853    -240.440    -303.767
  H      321.930    -240.455    -307.896
  H      320.750    -240.076    -306.665
  H      322.093    -241.129    -306.292

 6  7  8  9  10  11  12  13  14  15  16  26  31  32  33  34  35 0
 6-311+G(2d,p)
 ****
 36  37 0
 6-311+G(2d,p)
 ****
 1  2  3  4  5  17  18  19  20  21  22  23  24  25 0
 3-21G
 ****
 27  28  29  30  38  39  40  41  42  43  44  45 0
 3-21G
 ****


