%nproc=1
%NoSave
%Mem=1900MB
#P OB98/GEN NMR

erre ene a

0 1
  C       92.678      -2.518    -137.314
  O       91.387      -2.750    -137.840
  H       93.119      -1.659    -137.826
  H       93.312      -3.391    -137.479
  H       92.620      -2.299    -136.243
  P       90.512      -3.899    -137.146
  C       89.857      -4.831    -139.488
  O       89.414      -4.346    -138.230
  C       88.941      -4.308    -140.595
  O       87.562      -4.427    -140.152
  C       89.187      -2.835    -140.941
  O       89.010      -2.650    -142.348
  C       88.087      -2.112    -140.185
  O       87.761      -0.839    -140.725
  C       86.946      -3.129    -140.287
  N       85.924      -2.932    -139.262
  C       84.602      -3.170    -139.621
  O       84.239      -3.605    -140.713
  N       83.667      -2.885    -138.659
  C       83.916      -2.377    -137.418
  O       83.033      -2.121    -136.608
  C       85.331      -2.139    -137.100
  C       86.254      -2.421    -138.021
  O       89.648      -3.102    -136.060
  O       91.283      -5.027    -136.549
  H       90.121      -3.067    -135.207
  H       88.576      -0.296    -140.732
  H       82.703      -3.054    -138.903
  H       85.567      -1.727    -136.128
  H       87.305      -2.243    -137.823
  H       86.485      -3.088    -141.282
  H       88.384      -1.968    -139.139
  H       90.178      -2.489    -140.646
  H       89.052      -4.946    -141.480
  H       89.827      -5.924    -139.482
  H       90.886      -4.501    -139.660
  P       90.322      -2.706    -143.272
  C       90.285      -0.131    -143.722
  O       90.221      -1.442    -144.257
  O       90.000      -3.964    -144.202
  O       91.585      -2.806    -142.483
  H       89.062      -4.035    -144.446
  H       90.202       0.582    -144.515
  H       91.219       0.003    -143.218
  H       89.482       0.011    -143.029

 6  7  8  9  10  11  12  13  14  15  16  27  31  32  33  34  35 0
 6-311+G(2d,p)
 ****
 36  37 0
 6-311+G(2d,p)
 ****
 1  2  3  4  5  17  18  19  20  21  22  23  24  25 0
 3-21G
 ****
 26  28  29  30  38  39  40  41  42  43  44  45 0
 3-21G
 ****


