%nproc=1
%NoSave
%Mem=1900MB
#P OB98/GEN NMR

erre ene a

0 1
  C     -899.195    -697.655      22.533
  O     -897.975    -697.859      23.245
  P     -897.485    -699.370      23.499
  C     -896.335    -699.685      21.177
  O     -897.385    -700.060      22.050
  C     -895.245    -700.788      21.161
  O     -895.765    -701.941      20.480
  C     -893.985    -700.386      20.408
  O     -893.155    -699.552      21.194
  C     -893.375    -701.736      20.087
  O     -892.625    -702.239      21.190
  C     -894.635    -702.614      19.843
  N     -894.885    -702.872      18.415
  C     -894.055    -703.794      17.818
  O     -893.145    -704.353      18.395
  N     -894.285    -704.016      16.479
  C     -895.215    -703.368      15.701
  O     -895.325    -703.584      14.494
  C     -896.055    -702.369      16.390
  C     -895.845    -702.156      17.697
  O     -898.775    -700.083      24.143
  O     -896.285    -699.499      24.350
  H     -893.275    -702.362      21.922
  H     -898.485    -700.747      24.799
  H     -893.705    -704.703      16.025
  H     -896.795    -701.848      15.812
  H     -896.435    -701.440      18.242
  H     -894.505    -703.570      20.349
  H     -892.695    -701.699      19.225
  H     -894.265    -699.879      19.451
  H     -895.015    -701.040      22.198
  H     -895.885    -698.758      21.528
  H     -896.715    -699.499      20.170
  P     -891.885    -698.867      20.464
  C     -892.445    -696.554      21.566
  O     -892.265    -697.295      20.389
  O     -892.085    -699.427      18.969
  O     -890.575    -699.213      21.102
  H     -893.025    -699.522      18.734
  H     -891.775    -696.897      22.368
  H     -893.495    -696.671      21.909
  H     -892.225    -695.512      21.342
  H     -899.386    -696.606      22.445
  H     -900.000    -698.120      23.063
  H     -899.115    -698.086      21.557

 3  4  5  6  7  8  9  10  11  12  13  23  28  29  30  31  32 0
 6-311+G(2d,p)
 ****
 33  34 0
 6-311+G(2d,p)
 ****
 1  2  14  15  16  17  18  19  20  21  22  24  25  26 0
 3-21G
 ****
 27  35  36  37  38  39  40  41  42  43  44  45 0
 3-21G
 ****


