%nproc=1
%NoSave
%Mem=1900MB
#P OB98/GEN NMR

erre ene a

0 1
  C     -366.100     306.111    -201.934
  O     -365.932     305.888    -200.548
  H     -365.199     306.591    -202.325
  H     -366.953     306.768    -202.121
  H     -366.241     305.159    -202.456
  P     -367.152     305.263    -199.721
  C     -367.272     307.552    -198.517
  O     -367.279     306.135    -198.379
  C     -367.270     308.226    -197.144
  O     -368.541     308.026    -196.493
  C     -366.219     307.678    -196.186
  O     -364.935     308.155    -196.530
  C     -366.768     308.175    -194.860
  O     -366.464     309.568    -194.667
  C     -368.288     307.973    -195.066
  N     -368.793     306.726    -194.498
  C     -368.821     306.646    -193.103
  O     -368.422     307.593    -192.419
  N     -369.283     305.491    -192.519
  C     -369.720     304.516    -193.259
  N     -370.169     303.405    -192.621
  C     -369.742     304.574    -194.733
  C     -369.255     305.685    -195.281
  O     -367.109     303.782    -199.496
  O     -368.446     305.696    -200.558
  H     -366.840     310.034    -195.439
  H     -368.701     304.991    -201.182
  H     -370.121     303.745    -195.311
  H     -369.235     305.809    -196.362
  H     -368.850     308.800    -194.612
  H     -366.349     307.637    -194.008
  H     -366.241     306.583    -196.182
  H     -367.140     309.305    -197.298
  H     -370.151     303.421    -191.608
  H     -368.175     307.829    -199.070
  H     -370.675     302.663    -193.082
  H     -366.401     307.880    -199.096
  P     -363.604     307.332    -196.166
  C     -362.178     309.349    -195.456
  O     -362.385     308.339    -196.435
  O     -363.485     306.005    -196.831
  O     -363.641     307.243    -194.571
  H     -364.290     306.554    -194.280
  H     -361.344     309.956    -195.740
  H     -361.980     308.892    -194.509
  H     -363.054     309.959    -195.382

 6  7  8  9  10  11  12  13  14  15  16  26  30  31  32  33  35 0
 6-311+G(2d,p)
 ****
 37  38 0
 6-311+G(2d,p)
 ****
 1  2  3  4  5  17  18  19  20  21  22  23  24  25 0
 3-21G
 ****
 27  28  29  34  36  39  40  41  42  43  44  45  46 0
 3-21G
 ****


