%nproc=1
%NoSave
%Mem=1900MB
#P OB98/GEN NMR

erre ene a

0 1
  C     -354.786     762.382    -324.630
  O     -354.857     762.291    -326.052
  P     -356.169     762.835    -326.787
  C     -357.820     761.834    -328.548
  O     -356.875     761.591    -327.504
  C     -358.020     760.578    -329.391
  O     -356.936     760.464    -330.353
  C     -358.064     759.281    -328.590
  O     -358.968     758.380    -329.253
  C     -356.647     758.746    -328.738
  O     -356.522     757.360    -328.468
  C     -356.365     759.142    -330.191
  N     -354.934     759.115    -330.526
  C     -354.368     757.890    -330.828
  O     -354.989     756.813    -330.833
  N     -353.023     757.890    -331.079
  C     -352.198     758.959    -330.966
  O     -350.972     758.882    -331.076
  C     -352.843     760.240    -330.643
  C     -354.168     760.273    -330.441
  O     -355.586     763.695    -328.014
  O     -357.083     763.655    -325.929
  H     -356.597     757.238    -327.507
  H     -355.599     764.637    -327.800
  H     -352.591     757.000    -331.306
  H     -352.210     761.134    -330.581
  H     -354.665     761.192    -330.186
  H     -356.911     758.480    -330.867
  H     -355.980     759.278    -328.043
  H     -358.354     759.403    -327.543
  H     -358.942     760.707    -329.971
  H     -357.451     762.642    -329.171
  H     -358.776     762.160    -328.099
  P     -360.035     757.573    -328.353
  C     -360.307     755.004    -327.904
  O     -359.433     756.104    -328.137
  O     -361.214     757.354    -329.398
  O     -360.464     758.320    -327.121
  H     -360.892     757.095    -330.292
  H     -361.234     755.112    -328.456
  H     -360.508     754.923    -326.852
  H     -359.804     754.099    -328.244
  H     -353.854     761.979    -324.293
  H     -355.592     761.827    -324.196
  H     -354.859     763.408    -324.334

 3  4  5  6  7  8  9  10  11  12  13  23  28  29  30  31  32 0
 6-311+G(2d,p)
 ****
 33  34 0
 6-311+G(2d,p)
 ****
 1  2  14  15  16  17  18  19  20  21  22  24  25  26 0
 3-21G
 ****
 27  35  36  37  38  39  40  41  42  43  44  45 0
 3-21G
 ****


