%nproc=1
%NoSave
%Mem=1900MB
#P OB98/GEN NMR

erre ene a

0 1
  C     -910.809    -515.796     -21.793
  O     -911.702    -516.740     -21.246
  H     -910.898    -514.858     -21.241
  H     -911.049    -515.605     -22.845
  H     -909.779    -516.157     -21.707
  P     -911.808    -518.158     -21.976
  C     -913.928    -517.234     -23.171
  O     -912.698    -517.941     -23.294
  C     -914.058    -516.241     -24.322
  O     -913.040    -515.222     -24.210
  C     -913.878    -516.858     -25.698
  O     -915.031    -517.540     -26.152
  C     -913.573    -515.623     -26.533
  O     -914.768    -514.954     -26.956
  C     -912.769    -514.746     -25.554
  N     -911.336    -514.760     -25.855
  C     -910.828    -513.567     -26.366
  O     -911.506    -512.563     -26.552
  N     -909.496    -513.589     -26.692
  C     -908.664    -514.665     -26.616
  O     -907.496    -514.621     -26.987
  C     -909.265    -515.899     -26.085
  C     -910.561    -515.887     -25.741
  O     -912.761    -519.003     -21.008
  O     -910.499    -518.842     -22.210
  H     -912.232    -519.659     -20.515
  H     -915.313    -514.840     -26.156
  H     -909.111    -512.728     -27.068
  H     -908.629    -516.776     -26.007
  H     -911.032    -516.792     -25.364
  H     -913.124    -513.711     -25.593
  H     -913.016    -515.887     -27.422
  H     -912.992    -517.514     -25.700
  H     -915.046    -515.749     -24.252
  H     -913.940    -516.680     -22.227
  H     -914.754    -517.949     -23.170
  P     -914.926    -519.127     -26.363
  C     -915.714    -518.610     -28.816
  O     -914.888    -519.368     -27.944
  O     -916.389    -519.588     -25.913
  O     -913.805    -519.743     -25.586
  H     -917.048    -518.880     -26.054
  H     -915.543    -518.918     -29.826
  H     -915.480    -517.571     -28.716
  H     -916.741    -518.770     -28.563

 6  7  8  9  10  11  12  13  14  15  16  27  31  32  33  34  35 0
 6-311+G(2d,p)
 ****
 36  37 0
 6-311+G(2d,p)
 ****
 1  2  3  4  5  17  18  19  20  21  22  23  24  25 0
 3-21G
 ****
 26  28  29  30  38  39  40  41  42  43  44  45 0
 3-21G
 ****


