%nproc=1
%NoSave
%Mem=1900MB
#P OB98/GEN NMR

erre ene a

0 1
  C      -46.666     -86.366       0.386
  O      -45.935     -85.491       1.222
  H      -45.983     -86.805      -0.345
  H      -47.446     -85.812      -0.143
  H      -47.116     -87.168       0.978
  P      -46.756     -84.771       2.397
  C      -44.549     -84.586       3.772
  O      -45.680     -83.921       3.229
  C      -43.415     -83.586       4.020
  O      -42.753     -83.310       2.750
  C      -43.895     -82.235       4.578
  O      -42.850     -81.683       5.397
  C      -44.028     -81.407       3.312
  O      -44.093     -80.036       3.623
  C      -42.788     -81.880       2.563
  N      -42.440     -78.074      -0.811
  C      -42.285     -78.107       0.529
  N      -42.385     -79.167       1.358
  C      -42.651     -80.286       0.663
  C      -42.839     -80.408      -0.702
  C      -42.730     -79.228      -1.457
  N      -42.910     -79.183      -2.820
  N      -43.123     -81.720      -1.038
  C      -43.100     -82.376       0.105
  N      -42.817     -81.550       1.157
  O      -47.127     -85.981       3.378
  O      -47.963     -84.009       1.967
  H      -44.861     -79.841       4.196
  H      -48.004     -86.338       3.148
  H      -42.049     -77.157       1.000
  H      -43.288     -83.433       0.229
  H      -41.864     -81.462       2.981
  H      -44.942     -81.664       2.768
  H      -44.817     -82.309       5.160
  H      -42.666     -84.046       4.675
  H      -44.223     -85.354       3.064
  H      -44.827     -85.062       4.718
  H      -42.841     -78.291      -3.282
  H      -43.161     -80.029      -3.312
  P      -43.192     -81.234       6.901
  C      -40.885     -81.998       7.850
  O      -41.843     -80.959       7.725
  O      -43.710     -82.606       7.548
  O      -44.239     -80.176       7.032
  H      -44.526     -82.443       8.057
  H      -40.053     -81.649       8.425
  H      -40.548     -82.292       6.878
  H      -41.331     -82.837       8.341

 6  7  8  9  10  11  12  13  14  15  25  28  32  33  34  35 0
 6-311+G(2d,p)
 ****
 36  37  40 0
 6-311+G(2d,p)
 ****
 1  2  3  4  5  16  17  18  19  20  21  22  23  24 0
 3-21G
 ****
 26  27  29  30  31  38  39 41  42  43  44  45  46  47  48 0
 3-21G
 ****


