%nproc=1
%NoSave
%Mem=1900MB
#P OB98/GEN NMR

erre ene a

0 1
  C     -293.682    -166.018      73.621
  O     -293.978    -165.774      74.981
  H     -294.376    -166.770      73.239
  H     -292.663    -166.405      73.533
  H     -293.787    -165.105      73.029
  P     -293.294    -164.494      75.660
  C     -290.874    -163.830      76.309
  O     -291.703    -164.696      75.548
  C     -289.620    -164.570      76.775
  O     -290.017    -165.629      77.687
  C     -288.817    -165.213      75.636
  O     -287.422    -165.075      75.918
  C     -289.213    -166.678      75.708
  O     -288.218    -167.542      75.161
  C     -289.437    -166.857      77.205
  N     -289.538    -171.831      78.012
  C     -288.466    -170.973      77.858
  N     -287.235    -171.523      77.921
  N     -288.593    -169.687      77.659
  C     -289.881    -169.268      77.655
  C     -291.028    -170.020      77.791
  C     -290.875    -171.446      77.981
  O     -291.786    -172.260      78.100
  N     -292.148    -169.232      77.696
  C     -291.679    -168.012      77.504
  N     -290.312    -167.983      77.479
  O     -293.590    -164.708      77.219
  O     -293.797    -163.171      75.187
  H     -288.572    -168.456      75.193
  H     -294.170    -163.994      77.546
  H     -289.387    -172.816      78.149
  H     -292.283    -167.124      77.370
  H     -288.501    -167.032      77.751
  H     -290.144    -166.836      75.151
  H     -287.064    -172.497      78.118
  H     -289.037    -164.775      74.660
  H     -286.432    -170.910      77.848
  H     -288.998    -163.874      77.351
  H     -291.435    -163.476      77.181
  H     -290.589    -162.968      75.695
  P     -286.520    -164.361      74.798
  C     -285.142    -165.083      72.724
  O     -285.866    -165.502      73.873
  O     -285.276    -163.796      75.635
  O     -287.224    -163.269      74.062
  H     -285.338    -162.825      75.706
  H     -284.766    -165.941      72.207
  H     -284.325    -164.461      73.025
  H     -285.790    -164.532      72.075

 6  7  8  9  10  11  12  13  14  15  26  29  33  34 0
 6-311+G(2d,p)
 ****
 36  38  39  40  41 0
 6-311+G(2d,p)
 ****
 1  2  3  4  5  16  17  18  19  20  21  22  23  24  25 0
 3-21G
 ****
 27  28  30  31  32  35  37  42  43  44  45  46  47 0
 3-21G
 ****
 48  49 0
 3-21G
 ****


