%nproc=1
%NoSave
%Mem=1900MB
#P OB98/GEN NMR

erre ene a

0 1
  C       71.770      62.353     115.295
  O       70.532      62.953     115.631
  H       72.083      61.712     116.122
  H       72.530      63.123     115.137
  H       71.659      61.742     114.395
  P       69.885      63.921     114.527
  C       70.863      65.986     115.748
  O       70.822      65.225     114.548
  C       70.906      67.479     115.433
  O       72.209      67.858     114.952
  C       69.921      67.922     114.357
  O       68.621      68.089     114.901
  C       70.535      69.251     113.942
  O       70.180      70.270     114.896
  C       72.045      68.962     114.022
  N       76.353      67.275     111.796
  C       76.091      67.668     113.061
  N       74.936      68.143     113.572
  C       73.984      68.201     112.625
  C       74.104      67.833     111.292
  C       75.357      67.343     110.883
  N       75.616      66.933     109.592
  N       72.916      68.032     110.622
  C       72.078      68.459     111.545
  N       72.686      68.611     112.766
  O       68.419      64.157     114.653
  O       70.344      63.192     113.176
  H       70.399      71.135     114.498
  H       71.249      62.845     113.265
  H       76.920      67.584     113.758
  H       71.023      68.653     111.387
  H       72.601      69.817     114.426
  H       70.174      69.588     112.968
  H       69.930      67.240     113.500
  H       70.734      68.024     116.371
  H       71.737      65.706     116.347
  H       76.579      66.760     109.345
  H       74.911      67.101     108.890
  H       69.961      65.746     116.320
  P       67.321      67.903     113.980
  C       67.338      70.360     113.221
  O       67.427      69.000     112.812
  O       66.024      67.901     114.714
  O       67.569      66.524     113.208
  H       66.733      66.027     113.119
  H       67.421      70.996     112.365
  H       68.130      70.579     113.906
  H       66.396      70.527     113.700

 6  7  8  9  10  11  12  13  14  15  25  28  32  33  34  35 0
 6-311+G(2d,p)
 ****
 36  39  40 0
 6-311+G(2d,p)
 ****
 1  2  3  4  5  16  17  18  19  20  21  22  23  24 0
 3-21G
 ****
 26  27  29  30  31  37  38  41  42  43  44  45  46  47 0
 3-21G
 ****
 48 0
 3-21G
 ****


