%nproc=1
%NoSave
%Mem=1900MB
#P OB98/GEN NMR

erre ene a

0 1
  C      -90.024    -127.333      52.724
  O      -88.968    -127.854      53.526
  P      -89.011    -127.601      55.106
  C      -91.268    -128.802      55.785
  O      -90.522    -127.617      55.618
  C      -91.716    -128.916      57.251
  O      -92.497    -127.762      57.628
  C      -92.577    -130.146      57.524
  O      -91.793    -131.290      57.813
  C      -93.425    -129.683      58.691
  O      -92.665    -129.733      59.913
  C      -93.710    -128.215      58.292
  N      -94.864    -127.946      57.408
  C      -96.160    -128.106      57.890
  O      -96.434    -128.470      59.031
  N      -97.170    -127.819      57.009
  C      -97.030    -127.237      55.784
  O      -97.974    -126.947      55.062
  C      -95.649    -126.949      55.382
  C      -94.651    -127.320      56.186
  O      -88.572    -126.072      55.258
  O      -88.133    -128.516      55.902
  H      -93.228    -129.367      60.618
  H      -87.725    -126.007      55.737
  H      -98.114    -127.997      57.318
  H      -95.493    -126.445      54.438
  H      -93.624    -127.111      55.896
  H      -93.847    -127.593      59.185
  H      -94.282    -130.334      58.840
  H      -93.244    -130.335      56.678
  H      -90.821    -128.941      57.886
  H      -90.677    -129.677      55.507
  H      -92.140    -128.784      55.123
  P      -92.002    -132.634      56.968
  C      -90.023    -132.324      55.367
  O      -91.431    -132.316      55.502
  O      -93.368    -133.231      57.014
  O      -90.892    -133.627      57.564
  H      -91.283    -134.213      58.253
  H      -89.772    -132.253      54.305
  H      -89.604    -133.250      55.770
  H      -89.595    -131.464      55.889
  H      -89.851    -127.585      51.699
  H      -90.060    -126.269      52.829
  H      -90.955    -127.754      53.042

 3  4  5  6  7  8  9  10  11  12  13  23  28  29  30  31  32 0
 6-311+G(2d,p)
 ****
 33  34 0
 6-311+G(2d,p)
 ****
 1  2  14  15  16  17  18  19  20  21  22  24  25  26  27 0
 3-21G
 ****
 35  36  37  38  39  40  41  42  43  44  45 0
 3-21G
 ****


