%nproc=1
%NoSave
%Mem=1900MB
#P OB98/GEN NMR

erre ene a

0 1
  C      595.740    -796.653    1356.099
  O      594.784    -796.076    1356.955
  H      595.283    -796.853    1355.130
  H      596.115    -797.593    1356.511
  H      596.587    -795.959    1355.950
  P      595.261    -795.740    1358.451
  C      596.503    -797.107    1360.281
  O      596.038    -797.061    1358.933
  C      596.349    -798.526    1360.832
  O      597.106    -799.463    1360.025
  C      596.882    -798.692    1362.260
  O      595.887    -798.306    1363.201
  C      597.121    -800.203    1362.312
  O      595.878    -800.886    1362.552
  C      597.629    -800.507    1360.880
  N      601.813    -803.367    1361.615
  C      600.538    -803.524    1362.047
  N      599.476    -802.688    1361.862
  C      599.845    -801.620    1361.135
  C      601.122    -801.342    1360.632
  C      602.127    -802.292    1360.884
  N      603.426    -802.121    1360.444
  N      601.112    -800.142    1359.943
  C      599.852    -799.735    1359.988
  N      599.061    -800.583    1360.718
  O      594.206    -795.216    1359.374
  O      596.477    -794.714    1358.163
  H      595.212    -800.474    1361.953
  H      597.000    -795.016    1357.396
  H      600.347    -804.430    1362.614
  H      599.468    -798.861    1359.459
  H      597.200    -801.466    1360.505
  H      597.812    -800.492    1363.109
  H      597.837    -798.177    1362.406
  H      595.298    -798.821    1360.788
  H      595.911    -796.412    1360.888
  H      604.129    -802.728    1360.842
  H      603.672    -801.249    1360.014
  H      597.540    -796.782    1360.292
  P      596.294    -797.764    1364.660
  C      598.208    -798.418    1366.252
  O      597.310    -798.873    1365.245
  O      595.136    -797.431    1365.541
  O      597.258    -796.511    1364.366
  H      597.358    -795.960    1365.171
  H      598.832    -799.229    1366.567
  H      597.650    -798.052    1367.088
  H      598.817    -797.632    1365.858

 6  7  8  9  10  11  12  13  14  15  25  28  32  33  34  35 0
 6-311+G(2d,p)
 ****
 36  39  40 0
 6-311+G(2d,p)
 ****
 1  2  3  4  5  16  17  18  19  20  21  22  23  24 0
 3-21G
 ****
 26  27  29  30  31  37  38  41  42  43  44  45  46  47 0
 3-21G
 ****
 48 0
 3-21G
 ****


