%nproc=1
%NoSave
%Mem=1900MB
#P OB98/GEN NMR

erre ene a

0 1
  C     -525.969     157.794      29.777
  O     -525.738     157.323      31.087
  P     -525.078     155.868      31.256
  C     -527.336     154.735      31.904
  O     -526.237     154.787      31.004
  C     -527.757     153.275      32.111
  O     -528.237     152.706      30.872
  C     -526.619     152.374      32.565
  O     -526.353     152.516      33.948
  C     -527.152     150.994      32.187
  O     -528.030     150.486      33.211
  C     -527.936     151.299      30.892
  N     -527.221     150.879      29.688
  C     -527.683     149.708      29.085
  O     -528.625     149.048      29.531
  N     -527.006     149.308      27.967
  C     -525.903     149.905      27.433
  O     -525.304     149.469      26.463
  C     -525.438     151.121      28.134
  C     -526.105     151.539      29.218
  O     -524.789     155.758      32.826
  O     -523.843     155.654      30.444
  H     -527.493     150.436      34.030
  H     -523.957     155.252      32.973
  H     -527.344     148.479      27.499
  H     -524.569     151.622      27.740
  H     -525.773     152.421      29.750
  H     -528.911     150.784      30.911
  H     -526.351     150.256      32.060
  H     -525.717     152.578      31.964
  H     -528.578     153.250      32.843
  H     -528.171     155.303      31.493
  H     -527.043     155.184      32.858
  P     -524.812     152.603      34.389
  C     -524.784     150.110      35.186
  O     -524.268     151.092      34.310
  O     -524.967     152.912      35.956
  O     -524.039     153.628      33.625
  H     -525.760     152.493      36.330
  H     -525.848     150.266      35.390
  H     -524.223     150.135      36.125
  H     -524.659     149.126      34.724
  H     -526.409     158.768      29.821
  H     -526.633     157.126      29.269
  H     -525.041     157.845      29.247

 3  4  5  6  7  8  9  10  11  12  13  23  28  29  30  31  32 0
 6-311+G(2d,p)
 ****
 33  34 0
 6-311+G(2d,p)
 ****
 1  2  14  15  16  17  18  19  20  21  22  24  25  26 0
 3-21G
 ****
 27  35  36  37  38  39  40  41  42  43  44  45 0
 3-21G
 ****


