%nproc=1
%NoSave
%Mem=1900MB
#P OB98/GEN NMR

erre ene a

0 1
  C     -138.699    -306.713     196.144
  O     -137.899    -307.290     197.154
  H     -139.136    -307.516     195.543
  H     -138.078    -306.090     195.495
  H     -139.507    -306.113     196.568
  P     -137.515    -306.406     198.430
  C     -136.315    -304.717     196.889
  O     -137.258    -304.897     197.936
  C     -135.544    -303.404     197.039
  O     -136.472    -302.296     197.063
  C     -134.746    -303.340     198.345
  O     -133.448    -303.906     198.271
  C     -134.675    -301.836     198.598
  O     -133.535    -301.252     197.945
  C     -135.977    -301.307     197.981
  N     -138.755    -297.715     200.329
  C     -137.682    -297.559     199.467
  N     -137.288    -296.285     199.242
  N     -137.059    -298.560     198.908
  C     -137.502    -299.773     199.306
  C     -138.541    -300.053     200.169
  C     -139.273    -298.936     200.733
  O     -140.240    -299.022     201.486
  N     -138.680    -301.405     200.375
  C     -137.671    -301.933     199.708
  N     -136.979    -300.988     198.980
  O     -136.031    -306.905     198.794
  O     -138.424    -306.550     199.614
  H     -132.731    -301.604     198.372
  H     -135.893    -306.836     199.756
  H     -139.213    -296.905     200.708
  H     -137.426    -302.987     199.678
  H     -135.801    -300.395     197.399
  H     -134.570    -301.622     199.666
  H     -137.676    -295.486     199.712
  H     -135.310    -303.795     199.167
  H     -136.392    -296.135     198.769
  H     -134.894    -303.259     196.165
  H     -136.883    -304.710     195.956
  H     -135.625    -305.564     196.849
  P     -132.665    -304.340     199.594
  C     -131.068    -302.253     199.609
  O     -132.047    -303.034     200.266
  O     -131.382    -305.101     199.021
  O     -133.437    -305.187     200.549
  H     -131.515    -306.069     199.042
  H     -130.792    -301.428     200.232
  H     -131.465    -301.885     198.686
  H     -130.206    -302.855     199.411

 6  7  8  9  10  11  12  13  14  15  26  29  33  34 0
 6-311+G(2d,p)
 ****
 36  38  39  40  41 0
 6-311+G(2d,p)
 ****
 1  2  3  4  5  16  17  18  19  20  21  22  23  24  25 0
 3-21G
 ****
 27  28  30  31  32  35  37  42  43  44  45  46  47 0
 3-21G
 ****
 48  49 0
 3-21G
 ****


