%nproc=1
%NoSave
%Mem=1900MB
#P OB98/GEN NMR

erre ene a

0 1
  C       52.086      27.703    -119.329
  O       52.924      28.511    -120.130
  P       53.778      27.883    -121.328
  C       55.472      27.177    -119.539
  O       54.771      26.786    -120.711
  C       56.724      26.328    -119.329
  O       56.342      24.938    -119.166
  C       57.736      26.406    -120.481
  O       59.044      26.387    -119.900
  C       57.475      25.126    -121.251
  O       58.588      24.734    -122.045
  C       57.121      24.170    -120.106
  N       56.396      22.996    -120.564
  C       57.158      21.883    -120.927
  O       58.386      21.966    -120.978
  N       56.506      20.715    -121.237
  C       55.214      20.717    -121.359
  N       54.603      19.526    -121.599
  C       54.399      21.942    -121.227
  C       55.038      23.023    -120.789
  O       54.438      28.879    -122.225
  O       52.722      26.995    -122.142
  H       52.745      27.254    -123.084
  H       59.410      24.875    -121.528
  H       53.344      21.920    -121.461
  H       54.522      23.963    -120.634
  H       58.029      23.843    -119.582
  H       56.615      25.263    -121.916
  H       57.620      27.311    -121.086
  H       57.199      26.646    -118.392
  H       55.191      18.703    -121.643
  H       54.805      27.046    -118.683
  H       53.616      19.373    -121.396
  H       55.731      28.241    -119.598
  P       60.073      27.553    -120.304
  C       61.285      26.283    -122.214
  O       60.452      27.362    -121.850
  O       61.417      27.065    -119.569
  O       59.726      28.935    -119.856
  H       61.984      27.839    -119.397
  H       61.491      26.347    -123.288
  H       60.786      25.331    -122.014
  H       62.234      26.327    -121.673
  H       51.606      28.310    -118.589
  H       52.673      26.949    -118.846
  H       51.344      27.238    -119.945

 3  4  5  6  7  8  9  10  11  12  13  24  27  28  29  30  32 0
 6-311+G(2d,p)
 ****
 34  35 0
 6-311+G(2d,p)
 ****
 1  2  14  15  16  17  18  19  20  21  22  23  25  26 0
 3-21G
 ****
 31  33  36  37  38  39  40  41  42  43  44  45  46 0
 3-21G
 ****


