%nproc=1
%NoSave
%Mem=1900MB
#P OB98/GEN NMR

erre ene a

0 1
  C     -132.171     -47.797     164.902
  O     -132.810     -48.698     164.021
  H     -132.663     -47.851     165.877
  H     -132.250     -46.774     164.523
  H     -131.119     -48.069     165.020
  P     -132.304     -48.686     162.496
  C     -134.184     -47.923     160.856
  O     -133.203     -47.543     161.811
  C     -135.552     -48.020     161.523
  O     -135.861     -46.796     162.230
  C     -136.715     -48.231     160.557
  O     -136.826     -49.566     160.093
  C     -137.874     -47.846     161.457
  O     -138.124     -48.904     162.402
  C     -137.300     -46.597     162.157
  N     -137.611     -45.351     161.453
  C     -138.859     -44.773     161.717
  O     -139.642     -45.303     162.504
  N     -139.208     -43.622     161.053
  C     -138.380     -43.080     160.216
  N     -138.783     -41.943     159.589
  C     -137.052     -43.645     159.917
  C     -136.737     -44.766     160.562
  O     -132.925     -50.031     161.889
  O     -130.835     -48.536     162.293
  H     -138.598     -49.603     161.916
  H     -132.796     -50.050     160.909
  H     -136.401     -43.165     159.200
  H     -135.776     -45.240     160.394
  H     -137.671     -46.517     163.187
  H     -138.806     -47.678     160.916
  H     -136.672     -47.529     159.717
  H     -135.504     -48.824     162.268
  H     -139.723     -41.613     159.769
  H     -133.899     -48.895     160.439
  H     -138.277     -41.533     158.814
  H     -134.227     -47.186     160.048
  P     -137.589     -49.799     158.700
  C     -140.029     -50.467     159.314
  O     -139.128     -49.430     158.946
  O     -137.608     -51.391     158.559
  O     -136.954     -49.137     157.516
  H     -137.534     -51.659     157.622
  H     -141.010     -50.059     159.440
  H     -139.706     -50.910     160.233
  H     -140.048     -51.212     158.546

 6  7  8  9  10  11  12  13  14  15  16  26  30  31  32  33  35 0
 6-311+G(2d,p)
 ****
 37  38 0
 6-311+G(2d,p)
 ****
 1  2  3  4  5  17  18  19  20  21  22  23  24  25 0
 3-21G
 ****
 27  28  29  34  36  39  40  41  42  43  44  45  46 0
 3-21G
 ****


