%nproc=1
%NoSave
%Mem=1900MB
#P OB98/GEN NMR

erre ene a

0 1
  C       53.939       9.824     158.650
  O       53.445      10.572     157.533
  P       54.341      10.916     156.248
  C       53.890      13.333     155.463
  O       53.555      11.956     155.315
  C       52.944      14.234     154.665
  O       53.157      14.070     153.250
  C       51.461      13.957     154.886
  O       51.024      14.477     156.130
  C       50.851      14.633     153.661
  O       50.702      16.047     153.871
  C       51.913      14.349     152.580
  N       51.526      13.261     151.691
  C       50.926      13.624     150.484
  O       50.690      14.808     150.232
  N       50.580      12.633     149.594
  C       50.754      11.389     149.919
  N       50.400      10.451     148.999
  C       51.302      10.960     151.219
  C       51.665      11.940     152.045
  O       54.850       9.712     155.523
  O       55.566      11.781     156.817
  H       49.964      16.336     153.303
  H       56.353      11.619     156.265
  H       51.403       9.913     151.462
  H       52.086      11.714     153.020
  H       52.091      15.247     151.975
  H       49.861      14.239     153.413
  H       51.273      12.877     154.836
  H       53.179      15.277     154.921
  H       50.035      10.778     148.114
  H       54.916      13.476     155.100
  H       50.496       9.459     149.150
  H       53.855      13.593     156.526
  P       49.596      14.044     156.711
  C       48.788      16.237     157.774
  O       49.309      14.944     158.007
  O       49.390      12.578     156.897
  O       48.555      14.633     155.641
  H       47.776      14.050     155.605
  H       48.275      16.576     158.677
  H       48.080      16.232     156.941
  H       49.609      16.924     157.552
  H       53.165       9.722     159.381
  H       54.772      10.337     159.083
  H       54.249       8.854     158.321

 3  4  5  6  7  8  9  10  11  12  13  23  27  28  29  30  32 0
 6-311+G(2d,p)
 ****
 34  35 0
 6-311+G(2d,p)
 ****
 1  2  14  15  16  17  18  19  20  21  22  24  25  26 0
 3-21G
 ****
 31  33  36  37  38  39  40  41  42  43  44  45  46 0
 3-21G
 ****


