%nproc=1
%NoSave
%Mem=1900MB
#P OB98/GEN NMR

erre ene a

0 1
  C      613.065    -509.286       7.111
  O      613.426    -510.595       6.722
  H      612.839    -509.286       8.182
  H      612.169    -508.980       6.564
  H      613.877    -508.581       6.921
  P      614.174    -510.761       5.312
  C      615.553    -512.931       5.653
  O      614.394    -512.338       5.090
  C      615.243    -514.347       6.144
  O      614.243    -514.262       7.207
  C      614.689    -515.280       5.056
  O      615.201    -516.603       5.281
  C      613.198    -515.294       5.352
  O      612.558    -516.457       4.838
  C      613.212    -515.203       6.871
  N      608.495    -516.805       7.519
  C      609.635    -517.492       7.151
  N      609.489    -518.798       6.852
  N      610.820    -516.942       7.082
  C      610.827    -515.633       7.430
  C      609.772    -514.840       7.805
  C      608.462    -515.451       7.863
  O      607.412    -514.893       8.159
  N      610.181    -513.545       8.016
  C      611.476    -513.557       7.745
  N      611.912    -514.805       7.384
  O      615.645    -510.217       5.628
  O      613.546    -510.038       4.168
  H      611.592    -516.326       4.901
  H      615.709    -509.274       5.381
  H      607.607    -517.271       7.543
  H      612.129    -512.696       7.773
  H      613.457    -516.166       7.348
  H      612.725    -514.411       4.906
  H      608.619    -519.303       6.913
  H      614.924    -514.960       4.040
  H      610.324    -519.331       6.620
  H      616.152    -514.768       6.596
  H      615.887    -512.324       6.505
  H      616.348    -512.955       4.908
  P      616.460    -517.079       4.413
  C      617.791    -518.340       6.263
  O      617.044    -518.429       5.055
  O      617.581    -515.989       4.773
  O      616.199    -517.130       2.944
  H      618.142    -515.824       3.989
  H      618.108    -519.318       6.559
  H      617.178    -517.916       7.031
  H      618.648    -517.719       6.107

 6  7  8  9  10  11  12  13  14  15  26  29  33  34 0
 6-311+G(2d,p)
 ****
 36  38  39  40  41 0
 6-311+G(2d,p)
 ****
 1  2  3  4  5  16  17  18  19  20  21  22  23  24  25 0
 3-21G
 ****
 27  28  30  31  32  35  37  42  43  44  45  46  47 0
 3-21G
 ****
 48  49 0
 3-21G
 ****


