%nproc=1
%NoSave
%Mem=1900MB
#P OB98/GEN NMR

erre ene a

0 1
  C      501.508     532.306     -47.742
  O      502.384     532.567     -48.821
  P      503.840     531.888     -48.778
  C      504.871     533.723     -47.251
  O      504.887     533.074     -48.514
  C      506.077     534.647     -47.115
  O      507.305     533.897     -47.200
  C      506.176     535.703     -48.206
  O      505.340     536.823     -47.955
  C      507.642     536.102     -48.090
  O      507.818     537.022     -46.995
  C      508.314     534.760     -47.780
  N      511.683     531.380     -49.461
  C      511.244     531.628     -48.171
  N      511.832     530.910     -47.189
  N      510.311     532.492     -47.876
  C      509.820     533.143     -48.963
  C      510.172     532.985     -50.284
  C      511.210     532.028     -50.592
  O      511.680     531.801     -51.706
  N      509.446     533.809     -51.096
  C      508.652     534.471     -50.273
  N      508.876     534.132     -48.965
  O      504.107     531.495     -50.305
  O      503.953     530.712     -47.874
  H      507.031     537.598     -46.987
  H      504.828     530.842     -50.364
  H      512.406     530.702     -49.636
  H      507.923     535.212     -50.578
  H      509.116     534.868     -47.045
  H      508.014     536.603     -48.988
  H      512.598     530.269     -47.347
  H      505.995     535.273     -49.193
  H      511.577     531.113     -46.232
  H      506.029     535.117     -46.128
  H      504.891     532.972     -46.458
  H      503.939     534.296     -47.155
  P      504.403     537.311     -49.165
  C      506.357     537.772     -50.816
  O      505.315     538.310     -50.027
  O      503.350     538.277     -48.441
  O      503.740     536.208     -49.916
  H      502.519     538.307     -48.946
  H      506.691     538.538     -51.521
  H      506.016     536.899     -51.377
  H      507.201     537.497     -50.176
  H      500.582     532.818     -47.902
  H      501.952     532.649     -46.831
  H      501.327     531.254     -47.676

 3  4  5  6  7  8  9  10  11  12  23  26  30  31 0
 6-311+G(2d,p)
 ****
 33  35  36  37  38 0
 6-311+G(2d,p)
 ****
 1  2  13  14  15  16  17  18  19  20  21  22  24  25 0
 3-21G
 ****
 27  28  29  32  34  39  40  41  42  43  44  45  46  47  48  49 0
 3-21G
 ****


