%nproc=1
%NoSave
%Mem=1900MB
#P OB98/GEN NMR

erre ene a

0 1
  C     -504.022    -449.562     329.798
  O     -503.380    -448.309     329.908
  H     -503.637    -450.223     330.580
  H     -503.812    -450.011     328.824
  H     -505.101    -449.450     329.933
  P     -503.838    -447.173     328.870
  C     -505.979    -446.566     330.220
  O     -505.434    -447.062     329.002
  C     -506.383    -445.106     330.049
  O     -505.209    -444.314     329.753
  C     -507.345    -444.856     328.893
  O     -508.682    -445.182     329.237
  C     -507.133    -443.365     328.646
  O     -507.911    -442.564     329.546
  C     -505.639    -443.192     328.949
  N     -502.649    -440.147     326.160
  C     -503.251    -439.973     327.356
  N     -504.017    -440.846     328.043
  C     -504.132    -442.004     327.373
  C     -503.583    -442.325     326.140
  C     -502.805    -441.333     325.523
  N     -502.223    -441.495     324.286
  N     -503.965    -443.594     325.757
  C     -504.719    -444.039     326.743
  N     -504.842    -443.113     327.740
  O     -503.622    -447.879     327.448
  O     -503.099    -445.882     328.974
  H     -508.830    -442.897     329.494
  H     -502.747    -447.636     327.094
  H     -503.095    -439.004     327.822
  H     -505.200    -445.005     326.773
  H     -505.437    -442.283     329.529
  H     -507.420    -443.087     327.633
  H     -507.027    -445.412     328.006
  H     -506.806    -444.748     330.993
  H     -505.220    -446.641     331.010
  H     -506.844    -447.177     330.496
  H     -501.700    -440.733     323.895
  H     -502.422    -442.335     323.759
  P     -509.784    -445.215     328.076
  C     -509.808    -447.701     327.302
  O     -509.368    -446.374     327.042
  O     -509.501    -443.865     327.263
  O     -511.194    -445.292     328.555
  H     -510.138    -443.174     327.521
  H     -509.453    -448.352     326.530
  H     -510.878    -447.724     327.324
  H     -509.424    -448.025     328.247

 6  7  8  9  10  11  12  13  14  15  25  28  32  33  34  35 0
 6-311+G(2d,p)
 ****
 36  37  40 0
 6-311+G(2d,p)
 ****
 1  2  3  4  5  16  17  18  19  20  21  22  23  24 0
 3-21G
 ****
 26  27  29  30  31  38  39 41  42  43  44  45  46  47  48 0
 3-21G
 ****


