%nproc=1
%NoSave
%Mem=1900MB
#P OB98/GEN NMR

erre ene a

0 1
  C      259.359    -183.299     682.477
  O      259.603    -182.383     683.529
  H      258.817    -184.166     682.883
  H      260.308    -183.647     682.053
  H      258.749    -182.834     681.699
  P      260.229    -180.963     683.121
  C      262.459    -182.210     682.511
  O      261.828    -181.121     683.176
  C      263.968    -182.158     682.742
  O      264.531    -180.930     682.218
  C      264.365    -182.147     684.208
  O      264.163    -183.394     684.838
  C      265.835    -181.749     684.087
  O      266.642    -182.869     683.710
  C      265.773    -180.700     682.940
  N      265.865    -179.330     683.433
  C      267.169    -178.879     683.718
  O      268.133    -179.610     683.539
  N      267.313    -177.613     684.217
  C      266.276    -176.865     684.399
  N      266.489    -175.607     684.909
  C      264.899    -177.287     684.085
  C      264.771    -178.524     683.613
  O      259.916    -180.062     684.410
  O      259.727    -180.393     681.831
  H      267.535    -182.514     683.529
  H      260.232    -180.456     685.237
  H      264.057    -176.612     684.236
  H      263.795    -178.916     683.369
  H      266.589    -180.874     682.230
  H      266.236    -181.375     685.032
  H      263.846    -181.344     684.733
  H      264.423    -182.997     682.202
  H      267.450    -175.356     685.125
  H      262.224    -182.209     681.441
  H      265.762    -174.946     685.117
  H      262.047    -183.138     682.938
  P      263.016    -183.568     685.946
  C      264.705    -183.052     687.828
  O      263.760    -183.998     687.300
  O      261.878    -184.464     685.549
  O      262.571    -182.060     686.264
  H      263.286    -181.482     686.602
  H      265.137    -183.442     688.726
  H      264.205    -182.131     688.044
  H      265.477    -182.879     687.107

 6  7  8  9  10  11  12  13  14  15  16  26  30  31  32  33  35 0
 6-311+G(2d,p)
 ****
 37  38 0
 6-311+G(2d,p)
 ****
 1  2  3  4  5  17  18  19  20  21  22  23  24  25 0
 3-21G
 ****
 27  28  29  34  36  39  40  41  42  43  44  45  46 0
 3-21G
 ****


