%nproc=1
%NoSave
%Mem=1900MB
#P OB98/GEN NMR

erre ene a

0 1
  C     -893.134     694.876     234.894
  O     -892.374     695.755     234.087
  H     -892.764     693.855     234.743
  H     -894.194     694.915     234.603
  H     -893.034     695.135     235.950
  P     -892.804     697.301     234.129
  C     -894.534     698.749     232.841
  O     -894.074     697.442     233.152
  C     -894.684     698.913     231.340
  O     -893.394     699.044     230.696
  C     -895.414     697.768     230.640
  O     -896.824     697.924     230.724
  C     -894.894     697.908     229.215
  O     -895.604     698.944     228.507
  C     -893.424     698.308     229.445
  N     -889.714     695.947     226.954
  C     -890.504     697.003     226.576
  N     -890.304     697.507     225.333
  N     -891.434     697.541     227.331
  C     -891.564     696.914     228.525
  C     -890.844     695.850     229.031
  C     -889.794     695.310     228.194
  O     -889.004     694.420     228.506
  N     -891.264     695.498     230.287
  C     -892.264     696.335     230.525
  N     -892.484     697.204     229.492
  O     -891.634     698.035     233.311
  O     -892.964     697.891     235.485
  H     -895.264     699.007     227.598
  H     -891.454     698.897     233.730
  H     -888.994     695.598     226.347
  H     -892.844     696.351     231.449
  H     -893.054     698.988     228.661
  H     -895.044     696.992     228.646
  H     -889.824     696.970     224.619
  H     -895.094     696.800     231.048
  H     -890.934     698.228     225.025
  H     -895.224     699.866     231.157
  H     -893.814     699.470     233.217
  H     -895.494     698.919     233.339
  P     -897.714     696.591     230.756
  C     -899.294     695.691     228.909
  O     -897.994     696.139     229.239
  O     -899.154     697.157     231.242
  O     -897.224     695.522     231.682
  H     -899.304     696.899     232.180
  H     -899.328     695.427     227.873
  H     -900.000     696.472     229.101
  H     -899.538     694.835     229.503

 6  7  8  9  10  11  12  13  14  15  26  29  33  34 0
 6-311+G(2d,p)
 ****
 36  38  39  40  41 0
 6-311+G(2d,p)
 ****
 1  2  3  4  5  16  17  18  19  20  21  22  23  24  25 0
 3-21G
 ****
 27  28  30  31  32  35  37  42  43  44  45  46  47 0
 3-21G
 ****
 48  49 0
 3-21G
 ****


