%nproc=1
%NoSave
%Mem=1900MB
#P OB98/GEN NMR

erre ene a

0 1
  C     -169.082    -450.145     135.211
  O     -169.281    -451.128     136.211
  P     -168.509    -450.973     137.606
  C     -170.550    -452.056     138.805
  O     -169.140    -452.033     138.632
  C     -170.901    -452.211     140.291
  O     -170.615    -453.585     140.709
  C     -170.122    -451.280     141.226
  O     -170.989    -450.938     142.315
  C     -169.004    -452.172     141.725
  O     -168.402    -451.702     142.919
  C     -169.762    -453.501     141.870
  N     -168.873    -454.652     141.974
  C     -168.689    -455.211     143.235
  O     -169.231    -454.793     144.255
  N     -167.807    -456.254     143.306
  C     -167.032    -456.718     142.281
  O     -166.167    -457.578     142.440
  C     -167.262    -456.092     140.971
  C     -168.155    -455.106     140.875
  O     -169.024    -449.562     138.158
  O     -167.023    -451.020     137.503
  H     -167.697    -452.333     143.165
  H     -168.363    -448.865     137.986
  H     -167.668    -456.676     144.211
  H     -166.682    -456.456     140.138
  H     -168.332    -454.610     139.927
  H     -170.417    -453.463     142.750
  H     -168.221    -452.237     140.961
  H     -169.753    -450.370     140.730
  H     -171.983    -452.062     140.408
  H     -170.966    -452.893     138.247
  H     -170.987    -451.132     138.400
  P     -170.732    -449.534     143.062
  C     -173.245    -448.994     143.584
  O     -171.959    -449.332     144.075
  O     -171.036    -448.502     141.876
  O     -169.365    -449.401     143.644
  H     -171.827    -448.744     141.361
  H     -173.436    -449.465     142.621
  H     -173.316    -447.909     143.482
  H     -173.995    -449.336     144.301
  H     -169.664    -450.392     134.347
  H     -168.046    -450.111     134.945
  H     -169.386    -449.190     135.585

 3  4  5  6  7  8  9  10  11  12  13  23  28  29  30  31  32 0
 6-311+G(2d,p)
 ****
 33  34 0
 6-311+G(2d,p)
 ****
 1  2  14  15  16  17  18  19  20  21  22  24  25  26 0
 3-21G
 ****
 27  35  36  37  38  39  40  41  42  43  44  45 0
 3-21G
 ****


