%nproc=1
%NoSave
%Mem=1900MB
#P OB98/GEN NMR

erre ene a

0 1
  C      -33.414      10.406      72.878
  O      -34.404      11.203      72.241
  P      -35.631      11.738      73.124
  C      -35.838      13.654      74.858
  O      -35.007      12.655      74.286
  C      -35.702      13.682      76.380
  O      -36.227      12.441      76.924
  C      -34.264      13.826      76.887
  O      -34.315      14.576      78.106
  C      -33.866      12.396      77.202
  O      -32.772      12.328      78.112
  C      -35.188      11.857      77.740
  N      -33.880       7.499      80.069
  C      -33.683       8.791      80.406
  N      -34.063       9.898      79.734
  C      -34.706       9.568      78.602
  C      -34.950       8.296      78.111
  C      -34.509       7.222      78.902
  N      -34.717       5.905      78.567
  N      -35.613       8.362      76.904
  C      -35.767       9.649      76.668
  N      -35.257      10.414      77.679
  O      -36.104      10.421      73.900
  O      -36.751      12.347      72.354
  H      -32.951      12.938      78.852
  H      -36.983      10.141      73.576
  H      -33.157       8.959      81.342
  H      -36.234      10.072      75.791
  H      -35.366      12.161      78.780
  H      -33.572      11.883      76.280
  H      -33.584      14.305      76.175
  H      -36.329      14.494      76.767
  H      -36.879      13.432      74.604
  H      -34.495       5.198      79.248
  H      -35.347       5.690      77.801
  H      -35.579      14.631      74.437
  P      -32.966      15.307      78.569
  C      -32.000      17.663      78.080
  O      -32.780      16.577      77.615
  O      -31.817      14.298      78.091
  O      -32.889      15.573      80.037
  H      -31.034      14.390      78.663
  H      -31.489      18.119      77.228
  H      -31.253      17.344      78.812
  H      -32.658      18.406      78.539
  H      -32.667      10.128      72.164
  H      -33.869       9.525      73.279
  H      -32.961      10.965      73.669

 3  4  5  6  7  8  9  10  11  12  22  25  29  30  31  32 0
 6-311+G(2d,p)
 ****
 33  36  37 0
 6-311+G(2d,p)
 ****
 1  2  13  14  15  16  17  18  19  20  21  23  24  26 0
 3-21G
 ****
 27  28  34  35  38  39  40  41  42  43  44  45  46  47  48 0
 3-21G
 ****


