%nproc=1
%NoSave
%Mem=1900MB
#P OB98/GEN NMR

erre ene a

0 1
  C      -72.492       3.902      28.069
  O      -71.098       4.121      28.009
  P      -70.252       4.729      29.221
  C      -68.147       5.583      27.957
  O      -69.343       5.926      28.648
  C      -67.508       6.779      27.234
  O      -68.414       7.270      26.225
  C      -67.287       7.933      28.218
  O      -66.137       7.959      29.039
  C      -67.522       9.198      27.401
  O      -66.305       9.791      26.946
  C      -68.355       8.707      26.215
  N      -71.551      12.004      24.066
  C      -70.320      11.565      23.616
  N      -69.804      12.236      22.562
  N      -69.656      10.582      24.166
  C      -70.258      10.075      25.269
  C      -71.479      10.416      25.801
  C      -72.222      11.476      25.159
  O      -73.276      11.950      25.577
  N      -71.734       9.742      26.967
  C      -70.651       9.020      27.165
  N      -69.711       9.221      26.182
  O      -69.634       3.751      30.168
  O      -71.395       5.529      30.033
  H      -65.758       9.991      27.726
  H      -71.174       5.473      30.983
  H      -71.981      12.821      23.648
  H      -70.484       8.369      28.016
  H      -67.883       8.992      25.266
  H      -68.030       9.960      28.005
  H      -70.217      13.087      22.208
  H      -68.121       7.901      28.932
  H      -68.836      12.057      22.314
  H      -66.602       6.477      26.699
  H      -68.396       4.789      27.247
  H      -67.425       5.165      28.665
  P      -66.066       8.451      30.559
  C      -63.558       7.980      30.734
  O      -64.577       8.956      30.859
  O      -66.165       7.101      31.417
  O      -67.147       9.402      30.965
  H      -66.478       7.305      32.318
  H      -62.658       8.336      31.243
  H      -63.329       7.824      29.675
  H      -63.868       7.031      31.181
  H      -72.829       3.490      27.141
  H      -72.992       4.831      28.249
  H      -72.712       3.219      28.863

 3  4  5  6  7  8  9  10  11  12  23  26  30  31 0
 6-311+G(2d,p)
 ****
 33  35  36  37  38 0
 6-311+G(2d,p)
 ****
 1  2  13  14  15  16  17  18  19  20  21  22  24  25 0
 3-21G
 ****
 27  28  29  32  34  39  40  41  42  43  44  45  46  47  48  49 0
 3-21G
 ****


