%nproc=1
%NoSave
%Mem=1900MB
#P OB98/GEN NMR

erre ene a

0 1
  C      217.615    -178.076      46.097
  O      217.279    -179.447      46.157
  H      218.352    -177.931      45.305
  H      218.058    -177.762      47.046
  H      216.737    -177.463      45.876
  P      216.013    -179.899      47.029
  C      217.114    -181.730      48.475
  O      216.240    -181.447      47.392
  C      217.748    -183.115      48.317
  O      218.931    -182.996      47.472
  C      218.196    -183.752      49.643
  O      218.071    -185.173      49.497
  C      219.657    -183.351      49.701
  O      220.375    -184.147      50.619
  C      220.051    -183.496      48.229
  N      221.292    -182.792      47.908
  C      222.432    -183.203      48.584
  O      222.430    -184.089      49.439
  N      223.587    -182.530      48.281
  C      223.688    -181.465      47.434
  O      224.744    -180.879      47.223
  C      222.439    -181.047      46.779
  C      221.313    -181.719      47.036
  O      214.678    -179.586      46.442
  O      216.229    -179.176      48.442
  H      220.005    -184.038      51.524
  H      215.365    -178.980      48.854
  H      224.427    -182.824      48.757
  H      222.484    -180.198      46.108
  H      220.378    -181.433      46.574
  H      220.187    -184.557      47.964
  H      219.760    -182.309      50.019
  H      217.621    -183.403      50.505
  H      217.045    -183.767      47.784
  H      216.527    -181.695      49.400
  H      217.900    -180.966      48.522
  P      217.518    -186.107      50.679
  C      218.832    -188.308      50.399
  O      217.587    -187.642      50.205
  O      216.182    -185.692      51.212
  O      218.632    -186.022      51.823
  H      218.223    -186.163      52.699
  H      218.756    -189.316      50.048
  H      219.076    -188.311      51.441
  H      219.598    -187.797      49.854

 6  7  8  9  10  11  12  13  14  15  16  26  31  32  33  34  35 0
 6-311+G(2d,p)
 ****
 36  37 0
 6-311+G(2d,p)
 ****
 1  2  3  4  5  17  18  19  20  21  22  23  24  25 0
 3-21G
 ****
 27  28  29  30  38  39  40  41  42  43  44  45 0
 3-21G
 ****


