%nproc=1
%NoSave
%Mem=1900MB
#P OB98/GEN NMR

erre ene a

0 1
  C     -272.040     449.547     701.324
  O     -271.330     448.368     701.672
  H     -273.107     449.353     701.439
  H     -271.842     449.820     700.282
  H     -271.761     450.368     701.983
  P     -269.734     448.364     701.525
  C     -269.544     447.559     703.969
  O     -269.178     447.319     702.622
  C     -269.047     446.408     704.863
  O     -269.920     445.273     704.641
  C     -267.604     445.984     704.526
  O     -266.744     445.966     705.665
  C     -267.793     444.676     703.765
  O     -266.694     443.785     703.831
  C     -269.101     444.121     704.344
  N     -269.800     443.205     703.448
  C     -269.274     441.913     703.301
  O     -268.273     441.495     703.885
  N     -269.958     441.078     702.442
  C     -271.072     441.419     701.726
  O     -271.642     440.627     700.980
  C     -271.563     442.792     701.899
  C     -270.919     443.610     702.745
  O     -269.078     449.707     701.558
  O     -269.472     447.608     700.141
  H     -266.834     443.082     703.163
  H     -269.262     448.258     699.447
  H     -269.591     440.147     702.336
  H     -272.449     443.097     701.354
  H     -271.266     444.626     702.905
  H     -268.913     443.590     705.289
  H     -267.949     444.917     702.697
  H     -267.122     446.717     703.863
  H     -269.148     446.704     705.914
  H     -270.621     447.637     704.024
  H     -269.103     448.503     704.326
  P     -265.407     446.826     705.814
  C     -265.824     448.527     707.775
  O     -265.270     447.278     707.342
  O     -265.193     447.881     704.764
  O     -264.240     445.715     705.642
  H     -263.484     446.177     705.206
  H     -265.636     448.657     708.820
  H     -266.880     448.529     707.600
  H     -265.370     449.327     707.228

 6  7  8  9  10  11  12  13  14  15  16  26  31  32  33  34  35 0
 6-311+G(2d,p)
 ****
 36  37 0
 6-311+G(2d,p)
 ****
 1  2  3  4  5  17  18  19  20  21  22  23  24  25 0
 3-21G
 ****
 27  28  29  30  38  39  40  41  42  43  44  45 0
 3-21G
 ****


