%nproc=1
%NoSave
%Mem=1900MB
#P OB98/GEN NMR

erre ene a

0 1
  C     -223.291    -898.920     -62.072
  O     -222.096    -898.280     -61.678
  H     -223.164    -900.000     -61.940
  H     -223.506    -898.720     -63.121
  H     -224.133    -898.590     -61.447
  P     -221.991    -896.690     -61.841
  C     -222.767    -896.460     -59.387
  O     -222.971    -896.050     -60.730
  C     -223.118    -895.310     -58.421
  O     -222.277    -894.170     -58.775
  C     -224.587    -894.880     -58.540
  O     -225.267    -894.860     -57.296
  C     -224.494    -893.550     -59.317
  O     -225.563    -892.670     -59.083
  C     -223.104    -893.020     -58.923
  N     -222.535    -892.090     -59.909
  C     -222.846    -890.760     -59.779
  O     -223.552    -890.270     -58.891
  N     -222.297    -889.920     -60.728
  C     -221.502    -890.310     -61.770
  O     -221.041    -889.520     -62.577
  C     -221.216    -891.750     -61.851
  C     -221.743    -892.570     -60.948
  O     -222.177    -896.160     -63.220
  O     -220.525    -896.340     -61.266
  H     -226.398    -893.120     -59.335
  H     -219.911    -896.180     -62.010
  H     -222.510    -888.950     -60.640
  H     -220.623    -892.090     -62.674
  H     -221.576    -893.640     -60.995
  H     -223.160    -892.500     -57.967
  H     -224.498    -893.790     -60.390
  H     -225.157    -895.590     -59.146
  H     -222.872    -895.620     -57.400
  H     -221.709    -896.730     -59.267
  H     -223.406    -897.320     -59.177
  P     -226.766    -895.360     -57.071
  C     -225.923    -897.400     -55.658
  O     -226.720    -896.920     -56.732
  O     -227.762    -894.930     -58.098
  O     -227.186    -894.680     -55.655
  H     -228.153    -894.490     -55.725
  H     -226.022    -898.463     -55.588
  H     -226.249    -896.951     -54.743
  H     -224.898    -897.148     -55.834

 6  7  8  9  10  11  12  13  14  15  16  26  31  32  33  34  35 0
 6-311+G(2d,p)
 ****
 36  37 0
 6-311+G(2d,p)
 ****
 1  2  3  4  5  17  18  19  20  21  22  23  24  25 0
 3-21G
 ****
 27  28  29  30  38  39  40  41  42  43  44  45 0
 3-21G
 ****


