%nproc=1
%NoSave
%Mem=1900MB
#P OB98/GEN NMR

erre ene a

0 1
  C      -58.726       1.986      41.918
  O      -59.181       3.220      42.441
  P      -60.031       3.283      43.797
  C      -62.119       3.767      42.368
  O      -61.537       2.927      43.361
  C      -62.786       2.918      41.290
  O      -61.814       1.961      40.793
  C      -63.981       2.077      41.742
  O      -65.214       2.770      41.765
  C      -64.019       1.016      40.650
  O      -64.636       1.560      39.467
  C      -62.523       0.761      40.397
  N      -60.674      -4.003      40.073
  C      -61.057      -3.117      39.130
  N      -61.563      -1.868      39.292
  C      -61.603      -1.553      40.595
  C      -61.242      -2.351      41.674
  C      -60.753      -3.632      41.372
  N      -60.339      -4.526      42.337
  N      -61.445      -1.680      42.870
  C      -61.917      -0.499      42.512
  N      -62.019      -0.372      41.154
  O      -59.864       4.543      44.579
  O      -59.577       1.985      44.611
  H      -64.034       2.250      39.124
  H      -59.835       2.069      45.553
  H      -60.955      -3.450      38.096
  H      -62.190       0.275      43.196
  H      -62.302       0.585      39.332
  H      -64.586       0.130      40.935
  H      -63.779       1.589      42.710
  H      -63.069       3.578      40.451
  H      -61.319       4.366      41.907
  H      -59.881      -5.371      42.027
  H      -60.243      -4.195      43.286
  H      -62.835       4.454      42.829
  P      -65.946       2.928      43.193
  C      -68.032       1.705      42.190
  O      -67.077       1.793      43.228
  O      -66.413       4.314      43.500
  O      -64.840       2.374      44.225
  H      -64.650       1.429      44.152
  H      -68.601       0.775      42.308
  H      -67.547       1.687      41.211
  H      -68.722       2.550      42.242
  H      -58.182       2.161      41.013
  H      -59.565       1.354      41.713
  H      -58.087       1.510      42.632

 3  4  5  6  7  8  9  10  11  12  22  25  29  30  31  32 0
 6-311+G(2d,p)
 ****
 33  36  37 0
 6-311+G(2d,p)
 ****
 1  2  13  14  15  16  17  18  19  20  21  23  24  26 0
 3-21G
 ****
 27  28  34  35  38  39  40  41  42  43  44  45  46  47  48 0
 3-21G
 ****


