%nproc=1
%NoSave
%Mem=1900MB
#P OB98/GEN NMR

erre ene a

0 1
  C      287.385    -494.940    -634.931
  O      288.316    -495.961    -635.234
  P      289.016    -495.923    -636.683
  C      291.487    -496.419    -636.038
  O      290.292    -496.903    -636.642
  C      292.484    -497.549    -635.812
  O      291.971    -498.443    -634.762
  C      292.743    -498.427    -637.062
  O      294.108    -498.870    -637.036
  C      291.863    -499.632    -636.830
  O      292.333    -500.768    -637.564
  C      291.943    -499.781    -635.307
  N      289.975    -501.661    -631.057
  C      290.952    -500.700    -631.216
  N      291.525    -500.250    -630.077
  N      291.299    -500.221    -632.367
  C      290.635    -500.772    -633.418
  C      289.635    -501.721    -633.382
  C      289.248    -502.241    -632.096
  O      288.400    -503.112    -631.888
  N      289.168    -502.004    -634.641
  C      289.921    -501.288    -635.449
  N      290.842    -500.534    -634.745
  O      289.677    -494.455    -636.737
  O      288.074    -496.151    -637.825
  H      293.110    -501.102    -637.094
  H      289.136    -493.880    -637.330
  H      289.715    -501.998    -630.145
  H      289.854    -501.257    -636.535
  H      292.863    -500.286    -635.015
  H      290.854    -499.405    -637.152
  H      291.334    -500.625    -629.158
  H      292.537    -497.913    -638.009
  H      292.284    -499.581    -630.180
  H      293.411    -497.122    -635.425
  H      291.253    -495.943    -635.100
  H      291.940    -495.657    -636.701
  P      294.853    -498.952    -638.475
  C      297.265    -498.728    -637.524
  O      296.302    -499.534    -638.190
  O      295.104    -497.417    -638.830
  O      294.052    -499.655    -639.525
  H      295.168    -497.297    -639.795
  H      297.520    -499.183    -636.573
  H      296.905    -497.702    -637.365
  H      298.156    -498.665    -638.170
  H      287.001    -495.089    -633.943
  H      286.580    -494.971    -635.635
  H      287.870    -493.988    -634.986

 3  4  5  6  7  8  9  10  11  12  23  26  30  31 0
 6-311+G(2d,p)
 ****
 33  35  36  37  38 0
 6-311+G(2d,p)
 ****
 1  2  13  14  15  16  17  18  19  20  21  22  24  25 0
 3-21G
 ****
 27  28  29  32  34  39  40  41  42  43  44  45  46  47  48  49 0
 3-21G
 ****


