%nproc=1
%NoSave
%Mem=1900MB
#P OB98/GEN NMR

erre ene a

0 1
  C      232.674     -13.007      10.700
  O      231.637     -13.436       9.841
  H      232.644     -11.920      10.815
  H      232.533     -13.467      11.682
  H      233.646     -13.311      10.302
  P      231.641     -12.841       8.350
  C      230.071     -11.136       7.169
  O      230.626     -11.598       8.392
  C      228.999     -10.092       7.465
  O      227.956     -10.668       8.284
  C      229.515      -8.885       8.240
  O      230.139      -7.926       7.402
  C      228.218      -8.347       8.821
  O      227.483      -7.645       7.804
  C      227.491      -9.645       9.206
  N      225.648      -9.838      13.979
  C      225.112      -9.391      12.822
  N      225.660      -9.394      11.590
  C      226.886      -9.938      11.616
  C      227.560     -10.443      12.716
  C      226.891     -10.375      13.948
  N      227.446     -10.799      15.135
  N      228.812     -10.898      12.351
  C      228.882     -10.689      11.052
  N      227.755     -10.080      10.567
  O      230.835     -13.934       7.502
  O      232.981     -12.526       7.776
  H      226.732      -7.205       8.247
  H      230.968     -13.787       6.547
  H      224.113      -8.972      12.898
  H      229.725     -10.947      10.424
  H      226.403      -9.567       9.096
  H      228.383      -7.645       9.643
  H      230.175      -9.186       9.060
  H      228.545      -9.785       6.514
  H      229.623     -11.982       6.637
  H      226.950     -10.573      15.983
  H      228.419     -11.063      15.147
  H      230.861     -10.700       6.552
  P      231.549      -7.327       7.886
  C      232.515      -4.916       7.929
  O      231.354      -5.737       7.987
  O      232.473      -7.504       6.594
  O      232.125      -7.990       9.093
  H      233.403      -7.664       6.852
  H      232.229      -3.888       8.008
  H      233.018      -5.075       6.998
  H      233.170      -5.167       8.737

 6  7  8  9  10  11  12  13  14  15  25  28  32  33  34  35 0
 6-311+G(2d,p)
 ****
 36  39  40 0
 6-311+G(2d,p)
 ****
 1  2  3  4  5  16  17  18  19  20  21  22  23  24 0
 3-21G
 ****
 26  27  29  30  31  37  38  41  42  43  44  45  46  47 0
 3-21G
 ****
 48 0
 3-21G
 ****


