%nproc=1
%NoSave
%Mem=1900MB
#P OB98/GEN NMR

erre ene a

0 1
  C     1184.897    -145.528    -850.159
  O     1184.243    -144.917    -849.063
  P     1183.627    -143.453    -849.295
  C     1185.684    -142.032    -848.532
  O     1184.380    -142.500    -848.223
  C     1185.858    -140.583    -848.148
  O     1185.121    -139.734    -849.037
  C     1185.355    -140.242    -846.749
  O     1186.308    -140.552    -845.735
  C     1185.189    -138.724    -846.867
  O     1186.474    -138.091    -846.719
  C     1184.677    -138.564    -848.296
  N     1180.554    -136.233    -846.390
  C     1181.854    -136.157    -846.044
  N     1182.891    -136.815    -846.616
  C     1182.487    -137.655    -847.572
  C     1181.165    -137.864    -847.986
  C     1180.159    -137.081    -847.356
  N     1178.842    -137.141    -847.713
  N     1181.128    -138.798    -849.008
  C     1182.354    -139.135    -849.191
  N     1183.222    -138.471    -848.378
  O     1182.140    -143.570    -848.692
  O     1183.625    -142.971    -850.710
  H     1186.925    -138.509    -845.954
  H     1181.571    -142.871    -849.089
  H     1182.111    -135.486    -845.245
  H     1182.708    -139.856    -849.943
  H     1185.086    -137.677    -848.798
  H     1184.539    -138.314    -846.081
  H     1184.375    -140.683    -846.547
  H     1186.937    -140.315    -848.243
  H     1185.857    -142.140    -849.615
  H     1178.215    -136.438    -847.334
  H     1178.593    -137.609    -848.566
  H     1186.432    -142.670    -848.015
  P     1185.778    -141.512    -844.541
  C     1185.775    -139.543    -842.824
  O     1186.297    -140.803    -843.195
  O     1186.729    -142.802    -844.676
  O     1184.323    -141.857    -844.613
  H     1186.269    -143.590    -844.305
  H     1185.946    -139.353    -841.773
  H     1184.677    -139.526    -842.991
  H     1186.239    -138.756    -843.441
  H     1185.257    -146.493    -849.867
  H     1185.721    -144.919    -850.468
  H     1184.208    -145.635    -850.971

 3  4  5  6  7  8  9  10  11  12  22  25  29  30  31  32 0
 6-311+G(2d,p)
 ****
 33  36  37 0
 6-311+G(2d,p)
 ****
 1  2  13  14  15  16  17  18  19  20  21  23  24  26 0
 3-21G
 ****
 27  28  34  35  38  39  40  41  42  43  44  45  46  47  48 0
 3-21G
 ****


