%nproc=1
%NoSave
%Mem=1900MB
#P OB98/GEN NMR

erre ene a

0 1
  C      -32.268    -139.568     373.295
  O      -32.608    -139.330     374.645
  H      -31.910    -140.597     373.199
  H      -31.465    -138.890     372.991
  H      -33.137    -139.432     372.648
  P      -33.346    -137.939     374.969
  C      -31.863    -136.361     376.406
  O      -32.191    -136.830     375.104
  C      -30.950    -137.357     377.115
  O      -29.810    -137.682     376.275
  C      -30.374    -136.854     378.438
  O      -31.296    -137.026     379.510
  C      -29.174    -137.776     378.592
  O      -29.613    -139.075     379.036
  C      -28.656    -137.856     377.147
  N      -23.733    -137.030     376.235
  C      -24.395    -138.204     376.554
  N      -23.627    -139.314     376.656
  N      -25.679    -138.280     376.761
  C      -26.318    -137.091     376.640
  C      -25.771    -135.864     376.329
  C      -24.346    -135.791     376.090
  O      -23.718    -134.780     375.782
  N      -26.734    -134.886     376.283
  C      -27.855    -135.511     376.590
  N      -27.652    -136.856     376.821
  O      -33.853    -138.134     376.479
  O      -34.475    -137.587     374.061
  H      -30.211    -138.930     379.791
  H      -34.714    -137.680     376.580
  H      -22.736    -137.024     376.093
  H      -28.832    -135.050     376.652
  H      -28.218    -138.838     376.919
  H      -28.455    -137.411     379.323
  H      -22.624    -139.317     376.553
  H      -30.032    -135.815     378.359
  H      -24.095    -140.192     376.857
  H      -31.516    -138.288     377.266
  H      -32.788    -136.238     376.988
  H      -31.364    -135.386     376.319
  P      -30.957    -136.298     380.905
  C      -30.284    -138.039     382.716
  O      -29.859    -137.236     381.618
  O      -32.280    -136.543     381.772
  O      -30.608    -134.851     380.796
  H      -32.345    -135.866     382.468
  H      -29.455    -138.605     383.086
  H      -31.055    -138.707     382.392
  H      -30.661    -137.409     383.494

 6  7  8  9  10  11  12  13  14  15  26  29  33  34 0
 6-311+G(2d,p)
 ****
 36  38  39  40  41 0
 6-311+G(2d,p)
 ****
 1  2  3  4  5  16  17  18  19  20  21  22  23  24  25 0
 3-21G
 ****
 27  28  30  31  32  35  37  42  43  44  45  46  47 0
 3-21G
 ****
 48  49 0
 3-21G
 ****


