%nproc=1
%NoSave
%Mem=1900MB
#P OB98/GEN NMR

erre ene a

0 1
  C      -36.119     -47.145    -291.336
  O      -35.426     -47.476    -292.544
  P      -36.336     -47.989    -293.763
  C      -37.406     -50.239    -294.481
  O      -36.454     -49.588    -293.648
  C      -37.044     -51.713    -294.699
  O      -35.826     -51.839    -295.492
  C      -36.813     -52.490    -293.396
  O      -37.278     -53.828    -293.620
  C      -35.301     -52.508    -293.281
  O      -34.854     -53.530    -292.392
  C      -34.928     -52.700    -294.749
  N      -30.166     -54.346    -294.414
  C      -31.334     -54.892    -293.915
  N      -31.224     -56.075    -293.276
  N      -32.508     -54.325    -294.037
  C      -32.472     -53.163    -294.734
  C      -31.382     -52.530    -295.293
  C      -30.087     -53.152    -295.122
  O      -29.026     -52.715    -295.548
  N      -31.754     -51.381    -295.952
  C      -33.056     -51.297    -295.729
  N      -33.545     -52.378    -295.047
  O      -35.393     -47.766    -295.038
  O      -37.632     -47.259    -293.894
  H      -33.878     -53.594    -292.483
  H      -35.652     -46.950    -295.506
  H      -29.289     -54.817    -294.278
  H      -33.688     -50.491    -296.061
  H      -35.082     -53.731    -295.089
  H      -34.937     -51.542    -292.905
  H      -30.360     -56.586    -293.192
  H      -37.302     -52.060    -292.517
  H      -32.071     -56.517    -292.935
  H      -37.855     -52.182    -295.269
  H      -37.456     -49.735    -295.449
  H      -38.400     -50.137    -294.033
  P      -38.345     -54.429    -292.588
  C      -38.236     -55.952    -290.496
  O      -37.526     -55.141    -291.414
  O      -38.984     -55.656    -293.400
  O      -39.405     -53.469    -292.156
  H      -39.942     -55.709    -293.213
  H      -37.555     -56.701    -290.089
  H      -39.079     -56.460    -290.972
  H      -38.607     -55.329    -289.679
  H      -35.415     -46.818    -290.599
  H      -36.638     -48.008    -290.975
  H      -36.821     -46.362    -291.531

 3  4  5  6  7  8  9  10  11  12  23  26  30  31 0
 6-311+G(2d,p)
 ****
 33  35  36  37  38 0
 6-311+G(2d,p)
 ****
 1  2  13  14  15  16  17  18  19  20  21  22  24  25 0
 3-21G
 ****
 27  28  29  32  34  39  40  41  42  43  44  45  46  47  48  49 0
 3-21G
 ****


