%nproc=1
%NoSave
%Mem=1900MB
#P OB98/GEN NMR

erre ene a

0 1
  C       94.597      93.308    -336.894
  O       95.477      92.215    -336.729
  H       95.172      94.169    -337.246
  H       94.131      93.563    -335.940
  H       93.830      93.069    -337.635
  P       94.833      90.825    -336.235
  C       95.385      91.338    -333.744
  O       94.376      91.093    -334.716
  C       94.819      91.160    -332.332
  O       93.684      92.042    -332.163
  C       94.349      89.729    -332.044
  O       94.770      89.353    -330.728
  C       92.837      89.813    -332.122
  O       92.196      88.808    -331.337
  C       92.572      91.261    -331.682
  N       91.304      91.763    -332.208
  C       90.168      91.576    -331.410
  O       90.264      90.994    -330.325
  N       88.948      91.995    -331.879
  C       88.859      92.506    -333.066
  N       87.618      92.882    -333.483
  C       90.018      92.680    -333.965
  C       91.199      92.299    -333.474
  O       96.110      89.873    -336.086
  O       93.762      90.272    -337.120
  H       92.447      88.952    -330.399
  H       95.845      88.926    -335.994
  H       89.890      93.095    -334.954
  H       92.107      92.388    -334.065
  H       92.551      91.335    -330.587
  H       92.518      89.679    -333.160
  H       94.733      89.003    -332.757
  H       95.579      91.481    -331.611
  H       86.844      92.740    -332.845
  H       95.756      92.360    -333.866
  H       87.428      93.264    -334.398
  H       96.210      90.634    -333.896
  P       96.032      88.363    -330.650
  C       94.565      86.235    -330.409
  O       95.548      86.921    -331.174
  O       96.243      88.149    -329.079
  O       97.255      88.894    -331.326
  H       96.961      88.720    -328.751
  H       94.342      85.297    -330.873
  H       93.676      86.828    -330.357
  H       94.938      86.064    -329.421

 6  7  8  9  10  11  12  13  14  15  16  26  30  31  32  33  35 0
 6-311+G(2d,p)
 ****
 37  38 0
 6-311+G(2d,p)
 ****
 1  2  3  4  5  17  18  19  20  21  22  23  24  25 0
 3-21G
 ****
 27  28  29  34  36  39  40  41  42  43  44  45  46 0
 3-21G
 ****


