%nproc=1
%NoSave
%Mem=1900MB
#P OB98/GEN NMR

erre ene a

0 1
  C       67.419    -303.048     192.188
  O       68.735    -302.902     192.741
  P       69.039    -302.061     194.076
  C       68.006    -303.608     195.865
  O       69.200    -303.075     195.315
  C       68.285    -304.783     196.811
  O       68.811    -305.919     196.059
  C       69.296    -304.469     197.932
  O       68.825    -305.140     199.106
  C       70.569    -305.107     197.396
  O       71.556    -305.332     198.387
  C       69.983    -306.379     196.771
  N       70.876    -307.113     195.880
  C       71.406    -308.324     196.341
  O       71.177    -308.735     197.479
  N       72.213    -309.047     195.495
  C       72.477    -308.607     194.306
  N       73.274    -309.376     193.519
  C       71.961    -307.329     193.787
  C       71.170    -306.641     194.616
  O       68.056    -300.965     194.334
  O       70.509    -301.462     193.879
  H       70.554    -300.572     194.288
  H       71.196    -305.972     199.028
  H       72.195    -306.999     192.788
  H       70.724    -305.705     194.299
  H       69.634    -307.043     197.567
  H       71.005    -304.443     196.638
  H       69.391    -303.400     198.148
  H       67.328    -305.109     197.242
  H       73.605    -310.255     193.904
  H       67.373    -303.965     195.043
  H       73.537    -309.132     192.575
  H       67.466    -302.813     196.394
  P       68.556    -304.300     200.448
  C       66.214    -303.307     199.882
  O       66.968    -304.216     200.659
  O       68.908    -302.808     199.980
  O       69.385    -304.671     201.638
  H       69.170    -302.278     200.752
  H       65.312    -303.813     199.521
  H       66.771    -302.933     199.019
  H       65.916    -302.463     200.510
  H       67.468    -303.648     191.303
  H       67.026    -302.083     191.943
  H       66.781    -303.522     192.905

 3  4  5  6  7  8  9  10  11  12  13  24  27  28  29  30  32 0
 6-311+G(2d,p)
 ****
 34  35 0
 6-311+G(2d,p)
 ****
 1  2  14  15  16  17  18  19  20  21  22  23  25  26 0
 3-21G
 ****
 31  33  36  37  38  39  40  41  42  43  44  45  46 0
 3-21G
 ****


