%nproc=1
%NoSave
%Mem=1900MB
#P OB98/GEN NMR

erre ene a

0 1
  C     -878.743     285.604    -894.690
  O     -879.953     286.375    -894.640
  P     -880.459     287.008    -896.030
  C     -883.067     286.848    -896.180
  O     -881.805     286.228    -896.470
  C     -883.890     285.935    -895.290
  O     -883.246     285.697    -893.990
  C     -885.260     286.520    -894.930
  O     -886.142     286.388    -896.040
  C     -885.638     285.627    -893.740
  O     -886.118     284.349    -894.180
  C     -884.286     285.489    -893.030
  N     -885.612     286.494    -888.180
  C     -885.972     285.518    -889.020
  N     -885.580     285.320    -890.290
  C     -884.707     286.266    -890.680
  C     -884.245     287.353    -889.940
  C     -884.734     287.458    -888.610
  N     -884.395     288.467    -887.780
  N     -883.359     288.118    -890.660
  C     -883.330     287.515    -891.870
  N     -884.112     286.398    -891.900
  O     -879.367     286.493    -897.090
  O     -880.547     288.506    -895.990
  H     -885.461     283.996    -894.810
  H     -878.797     287.252    -897.360
  H     -886.654     284.778    -888.610
  H     -882.729     287.868    -892.690
  H     -884.140     284.468    -892.620
  H     -886.417     286.097    -893.110
  H     -885.171     287.550    -894.630
  H     -883.998     284.953    -895.780
  H     -883.610     287.055    -897.100
  H     -884.852     288.520    -886.870
  H     -883.808     289.236    -888.110
  H     -882.873     287.806    -895.680
  P     -886.137     287.562    -897.130
  C     -885.757     286.190    -899.270
  O     -885.162     287.033    -898.310
  O     -885.232     288.690    -896.380
  O     -887.476     288.039    -897.570
  H     -884.404     288.285    -896.020
  H     -884.992     285.918    -900.000
  H     -886.583     286.731    -899.770
  H     -886.139     285.299    -898.780
  H     -878.512     285.239    -893.711
  H     -877.941     286.221    -895.039
  H     -878.874     284.778    -895.357

 3  4  5  6  7  8  9  10  11  12  22  25  29  30  31  32 0
 6-311+G(2d,p)
 ****
 33  36  37 0
 6-311+G(2d,p)
 ****
 1  2  13  14  15  16  17  18  19  20  21  23  24  26 0
 3-21G
 ****
 27  28  34  35  38  39  40  41  42  43  44  45  46  47  48 0
 3-21G
 ****


