%nproc=1
%NoSave
%Mem=1900MB
#P OB98/GEN NMR

erre ene a

0 1
  C     -898.500    -352.185    -572.554
  O     -899.140    -352.101    -571.298
  H     -899.010    -351.512    -573.250
  H     -898.570    -353.206    -572.945
  H     -897.450    -351.892    -572.482
  P     -898.480    -352.842    -570.041
  C     -898.370    -350.717    -568.578
  O     -897.630    -351.733    -569.245
  C     -897.680    -350.345    -567.272
  O     -897.790    -351.434    -566.324
  C     -896.190    -350.060    -567.410
  O     -895.970    -348.787    -567.983
  C     -895.730    -350.201    -565.965
  O     -896.020    -349.010    -565.219
  C     -896.610    -351.383    -565.480
  N     -895.910    -352.667    -565.492
  C     -896.110    -353.492    -564.387
  O     -896.800    -353.160    -563.426
  N     -895.470    -354.706    -564.422
  C     -894.600    -355.119    -565.390
  O     -894.010    -356.198    -565.344
  C     -894.400    -354.193    -566.514
  C     -895.050    -353.030    -566.515
  O     -897.730    -354.098    -570.345
  O     -899.720    -353.111    -569.065
  H     -895.960    -349.253    -564.276
  H     -900.000    -354.040    -569.149
  H     -895.600    -355.303    -563.622
  H     -893.720    -354.495    -567.300
  H     -894.910    -352.332    -567.332
  H     -896.970    -351.199    -564.460
  H     -894.660    -350.375    -565.872
  H     -895.710    -350.849    -568.006
  H     -898.200    -349.480    -566.843
  H     -899.380    -351.100    -568.365
  H     -898.450    -349.846    -569.235
  P     -894.530    -348.383    -568.552
  C     -895.590    -347.416    -570.679
  O     -894.640    -348.334    -570.161
  O     -893.390    -349.196    -568.031
  O     -894.370    -346.842    -568.157
  H     -893.740    -346.751    -567.419
  H     -895.584    -347.462    -571.748
  H     -895.338    -346.425    -570.363
  H     -896.565    -347.669    -570.317

 6  7  8  9  10  11  12  13  14  15  16  26  31  32  33  34  35 0
 6-311+G(2d,p)
 ****
 36  37 0
 6-311+G(2d,p)
 ****
 1  2  3  4  5  17  18  19  20  21  22  23  24  25 0
 3-21G
 ****
 27  28  29  30  38  39  40  41  42  43  44  45 0
 3-21G
 ****


