%nproc=1
%NoSave
%Mem=1900MB
#P OB98/GEN NMR

erre ene a

0 1
  C     -224.159     -62.855     951.547
  O     -225.539     -63.204     951.307
  P     -226.624     -62.107     950.870
  C     -228.197     -63.231     949.152
  O     -228.006     -62.869     950.514
  C     -229.533     -63.961     948.945
  O     -229.470     -65.290     949.520
  C     -230.732     -63.287     949.575
  O     -231.167     -62.199     948.775
  C     -231.728     -64.442     949.676
  O     -232.372     -64.668     948.418
  C     -230.796     -65.616     950.017
  N     -232.488     -68.730     953.716
  C     -232.695     -68.708     952.381
  N     -232.207     -67.844     951.463
  C     -231.411     -66.930     952.044
  C     -231.105     -66.829     953.393
  C     -231.683     -67.772     954.265
  N     -231.486     -67.782     955.618
  N     -230.276     -65.741     953.624
  C     -230.052     -65.231     952.424
  N     -230.721     -65.918     951.442
  O     -226.155     -61.165     949.804
  O     -226.975     -61.317     952.211
  H     -231.699     -64.929     947.771
  H     -227.251     -60.401     951.991
  H     -233.347     -69.487     951.997
  H     -229.437     -64.362     952.222
  H     -231.097     -66.540     949.511
  H     -232.510     -64.270     950.420
  H     -230.480     -62.936     950.584
  H     -229.671     -64.087     947.860
  H     -227.370     -63.882     948.842
  H     -231.957     -68.477     956.174
  H     -230.925     -67.040     956.027
  H     -228.173     -62.333     948.539
  P     -231.488     -60.770     949.438
  C     -230.685     -59.299     947.495
  O     -231.794     -59.748     948.246
  O     -230.469     -60.289     950.434
  O     -232.923     -60.968     950.131
  H     -232.979     -60.405     950.914
  H     -230.188     -58.495     948.044
  H     -231.054     -58.894     946.527
  H     -229.986     -60.102     947.294
  H     -223.613     -63.732     951.826
  H     -224.105     -62.135     952.337
  H     -223.736     -62.439     950.656

 3  4  5  6  7  8  9  10  11  12  22  25  29  30  31  32 0
 6-311+G(2d,p)
 ****
 33  36  37 0
 6-311+G(2d,p)
 ****
 1  2  13  14  15  16  17  18  19  20  21  23  24  26 0
 3-21G
 ****
 27  28  34  35  38  39  40  41  42  43  44  45  46  47  48 0
 3-21G
 ****


