%nproc=1
%NoSave
%Mem=1900MB
#P OB98/GEN NMR

erre ene a

0 1
  C      382.168     431.903    1091.632
  O      381.261     432.781    1092.262
  H      381.670     431.437    1090.784
  H      382.491     431.124    1092.325
  H      383.033     432.464    1091.265
  P      381.791     433.551    1093.567
  C      382.047     435.753    1092.229
  O      382.701     434.747    1092.988
  C      382.816     437.074    1092.319
  O      382.865     437.545    1093.674
  C      384.258     436.986    1091.846
  O      384.328     437.108    1090.430
  C      384.861     438.199    1092.531
  O      384.558     439.388    1091.779
  C      384.119     438.232    1093.880
  N      387.880     438.791    1097.328
  C      387.558     439.509    1096.237
  N      386.573     439.272    1095.329
  C      385.885     438.170    1095.656
  C      386.108     437.326    1096.739
  C      387.153     437.691    1097.604
  N      387.485     436.947    1098.724
  N      385.203     436.286    1096.742
  C      384.416     436.524    1095.720
  N      384.816     437.628    1095.005
  O      382.422     432.698    1094.619
  O      380.468     434.324    1094.031
  H      384.886     440.147    1092.306
  H      379.986     434.673    1093.261
  H      388.161     440.394    1096.052
  H      383.539     435.939    1095.453
  H      383.870     439.258    1094.184
  H      385.946     438.144    1092.615
  H      384.756     436.076    1092.208
  H      382.251     437.822    1091.743
  H      381.020     435.907    1092.593
  H      388.362     437.159    1099.178
  H      387.031     436.053    1098.853
  H      381.991     435.409    1091.192
  P      385.549     436.469    1089.607
  C      384.441     434.152    1089.511
  O      385.551     434.912    1089.990
  O      386.845     437.186    1089.769
  O      385.040     436.468    1088.086
  H      385.787     436.346    1087.480
  H      384.545     433.134    1089.823
  H      384.413     434.197    1088.442
  H      383.534     434.556    1089.909

 6  7  8  9  10  11  12  13  14  15  25  28  32  33  34  35 0
 6-311+G(2d,p)
 ****
 36  39  40 0
 6-311+G(2d,p)
 ****
 1  2  3  4  5  16  17  18  19  20  21  22  23  24 0
 3-21G
 ****
 26  27  29  30  31  37  38  41  42  43  44  45  46  47 0
 3-21G
 ****
 48 0
 3-21G
 ****


