%nproc=1
%NoSave
%Mem=1900MB
#P OB98/GEN NMR

erre ene a

0 1
  C     -211.786     165.436      57.453
  O     -212.080     164.320      56.633
  H     -211.867     166.344      56.848
  H     -210.766     165.364      57.836
  H     -212.496     165.505      58.284
  P     -212.129     162.864      57.304
  C     -209.579     162.613      57.075
  O     -210.847     162.063      56.750
  C     -208.495     161.536      57.010
  O     -208.789     160.514      57.995
  C     -208.391     160.850      55.641
  O     -207.012     160.594      55.366
  C     -209.124     159.540      55.844
  O     -208.674     158.518      54.957
  C     -208.838     159.244      57.313
  N     -210.331     154.443      57.837
  C     -209.194     154.964      57.249
  N     -208.339     154.083      56.692
  N     -208.924     156.242      57.206
  C     -209.862     157.013      57.813
  C     -211.024     156.615      58.429
  C     -211.321     155.199      58.458
  O     -212.314     154.682      58.960
  N     -211.726     157.697      58.907
  C     -210.986     158.745      58.573
  N     -209.851     158.380      57.901
  O     -213.425     162.133      57.152
  O     -211.767     163.127      58.837
  H     -208.749     158.874      54.047
  H     -212.574     163.136      59.385
  H     -210.493     153.450      57.832
  H     -211.233     159.775      58.788
  H     -207.869     158.735      57.454
  H     -210.201     159.686      55.678
  H     -208.473     153.082      56.697
  H     -208.827     161.446      54.830
  H     -207.489     154.439      56.270
  H     -207.536     161.987      57.293
  H     -209.628     163.020      58.092
  H     -209.343     163.425      56.379
  P     -206.244     161.538      54.318
  C     -206.123     159.584      52.635
  O     -205.397     160.595      53.327
  O     -205.487     162.680      54.915
  O     -207.432     162.060      53.375
  H     -207.199     162.946      53.040
  H     -205.454     159.028      52.012
  H     -206.879     160.039      52.030
  H     -206.581     158.926      53.343

 6  7  8  9  10  11  12  13  14  15  26  29  33  34 0
 6-311+G(2d,p)
 ****
 36  38  39  40  41 0
 6-311+G(2d,p)
 ****
 1  2  3  4  5  16  17  18  19  20  21  22  23  24  25 0
 3-21G
 ****
 27  28  30  31  32  35  37  42  43  44  45  46  47 0
 3-21G
 ****
 48  49 0
 3-21G
 ****


