%nproc=1
%NoSave
%Mem=1900MB
#P OB98/GEN NMR

erre ene a

0 1
  C     -429.139    -390.500     138.450
  O     -430.265    -391.278     138.082
  H     -428.543    -390.254     137.568
  H     -429.492    -389.572     138.909
  H     -428.529    -391.047     139.175
  P     -429.960    -392.638     137.289
  C     -430.536    -392.439     134.768
  O     -429.569    -392.214     135.790
  C     -431.616    -391.364     134.820
  O     -431.022    -390.067     135.046
  C     -432.423    -391.210     133.537
  O     -433.421    -392.215     133.418
  C     -433.036    -389.831     133.755
  O     -434.185    -389.941     134.615
  C     -431.909    -389.080     134.470
  N     -431.754    -384.532     132.076
  C     -432.682    -385.088     132.880
  N     -432.662    -386.302     133.472
  C     -431.526    -386.967     133.184
  C     -430.486    -386.520     132.377
  C     -430.630    -385.236     131.800
  N     -429.679    -384.686     130.963
  N     -429.481    -387.463     132.310
  C     -429.905    -388.456     133.063
  N     -431.135    -388.208     133.604
  O     -431.407    -393.305     137.126
  O     -429.002    -393.572     137.959
  H     -434.825    -390.515     134.160
  H     -431.316    -394.275     137.193
  H     -433.558    -384.485     133.085
  H     -429.346    -389.365     133.249
  H     -432.297    -388.473     135.303
  H     -433.369    -389.361     132.829
  H     -431.769    -391.180     132.654
  H     -432.270    -391.590     135.669
  H     -431.001    -393.421     134.915
  H     -429.748    -383.707     130.747
  H     -428.851    -385.226     130.771
  H     -430.028    -392.423     133.800
  P     -434.067    -392.449     131.958
  C     -436.576    -391.795     131.929
  O     -435.222    -391.352     131.817
  O     -434.868    -393.825     132.134
  O     -433.078    -392.516     130.836
  H     -434.957    -394.264     131.261
  H     -437.235    -390.960     131.815
  H     -436.727    -392.240     132.890
  H     -436.779    -392.517     131.166

 6  7  8  9  10  11  12  13  14  15  25  28  32  33  34  35 0
 6-311+G(2d,p)
 ****
 36  39  40 0
 6-311+G(2d,p)
 ****
 1  2  3  4  5  16  17  18  19  20  21  22  23  24 0
 3-21G
 ****
 26  27  29  30  31  37  38  41  42  43  44  45  46  47  48 0
 3-21G
 ****


