%nproc=1
%NoSave
%Mem=1900MB
#P OB98/GEN NMR

erre ene a

0 1
  C      169.609     -94.036     -39.349
  O      170.773     -93.240     -39.223
  H      169.009     -93.921     -38.443
  H      169.879     -95.090     -39.461
  H      169.015     -93.708     -40.206
  P      171.847     -93.264     -40.409
  C      170.993     -91.074     -41.480
  O      171.176     -92.475     -41.637
  C      172.109     -90.312     -42.192
  O      173.388     -90.639     -41.611
  C      172.226     -90.615     -43.683
  O      171.274     -89.863     -44.421
  C      173.654     -90.169     -43.948
  O      173.704     -88.729     -44.016
  C      174.377     -90.656     -42.676
  N      178.452     -93.407     -43.931
  C      178.208     -92.060     -44.102
  N      179.175     -91.350     -44.727
  N      177.112     -91.466     -43.712
  C      176.206     -92.312     -43.170
  C      176.328     -93.664     -42.962
  C      177.573     -94.302     -43.338
  O      177.836     -95.489     -43.180
  N      175.164     -94.205     -42.476
  C      174.361     -93.168     -42.336
  N      174.943     -91.992     -42.754
  O      172.390     -94.612     -40.777
  O      172.997     -92.266     -39.921
  H      174.527     -88.494     -44.485
  H      173.700     -92.745     -39.440
  H      179.315     -93.813     -44.261
  H      173.352     -93.207     -41.938
  H      175.192     -89.985     -42.382
  H      174.052     -90.552     -44.885
  H      179.967     -91.775     -45.181
  H      172.150     -91.690     -43.882
  H      178.985     -90.372     -44.912
  H      171.945     -89.239     -42.018
  H      171.004     -90.858     -40.406
  H      170.024     -90.769     -41.889
  P      170.139     -90.585     -45.301
  C      168.395     -90.171     -43.435
  O      169.064     -91.124     -44.242
  O      170.642     -91.607     -46.255
  O      169.350     -89.377     -45.990
  H      169.777     -89.069     -46.829
  H      167.713     -90.673     -42.781
  H      167.855     -89.491     -44.060
  H      169.112     -89.629     -42.854

 6  7  8  9  10  11  12  13  14  15  26  29  33  34 0
 6-311+G(2d,p)
 ****
 36  38  39  40  41 0
 6-311+G(2d,p)
 ****
 1  2  3  4  5  16  17  18  19  20  21  22  23  24  25 0
 3-21G
 ****
 27  28  30  31  32  35  37  42  43  44  45  46  47 0
 3-21G
 ****
 48  49 0
 3-21G
 ****


