%nproc=1
%NoSave
%Mem=1900MB
#P OB98/GEN NMR

erre ene a

0 1
  C     -394.856    -142.698    -152.803
  O     -395.171    -142.407    -151.459
  H     -394.112    -141.974    -153.147
  H     -395.744    -142.603    -153.433
  H     -394.433    -143.703    -152.892
  P     -396.279    -143.295    -150.706
  C     -398.170    -141.624    -151.189
  O     -397.676    -142.937    -151.429
  C     -399.690    -141.572    -151.355
  O     -400.311    -142.506    -150.435
  C     -400.295    -140.182    -151.089
  O     -401.216    -139.846    -152.132
  C     -401.050    -140.368    -149.779
  O     -402.108    -139.432    -149.609
  C     -401.469    -141.841    -149.897
  N     -401.892    -142.394    -148.615
  C     -403.184    -142.061    -148.197
  O     -403.900    -141.342    -148.895
  N     -403.613    -142.501    -146.968
  C     -402.804    -143.176    -146.211
  N     -403.286    -143.558    -144.993
  C     -401.423    -143.524    -146.601
  C     -401.032    -143.106    -147.807
  O     -396.285    -143.153    -149.218
  O     -396.007    -144.794    -151.191
  H     -401.730    -138.597    -149.249
  H     -396.386    -145.418    -150.530
  H     -400.792    -144.084    -145.928
  H     -400.038    -143.318    -148.184
  H     -402.296    -141.954    -150.615
  H     -400.351    -140.248    -148.941
  H     -399.546    -139.396    -151.007
  H     -399.942    -141.923    -152.365
  H     -404.236    -143.293    -144.761
  H     -397.684    -140.934    -151.888
  H     -402.741    -144.066    -144.312
  H     -397.913    -141.340    -150.163
  P     -400.659    -138.868    -153.279
  C     -400.686    -136.766    -151.753
  O     -399.917    -137.638    -152.562
  O     -401.995    -138.217    -153.882
  O     -399.870    -139.576    -154.331
  H     -402.151    -138.563    -154.784
  H     -400.053    -136.004    -151.349
  H     -401.131    -137.321    -150.954
  H     -401.454    -136.315    -152.345

 6  7  8  9  10  11  12  13  14  15  16  26  30  31  32  33  35 0
 6-311+G(2d,p)
 ****
 37  38 0
 6-311+G(2d,p)
 ****
 1  2  3  4  5  17  18  19  20  21  22  23  24  25 0
 3-21G
 ****
 27  28  29  34  36  39  40  41  42  43  44  45  46 0
 3-21G
 ****


