%nproc=1
%NoSave
%Mem=1900MB
#P OB98/GEN NMR

erre ene a

0 1
  C      599.224     -53.840    -685.780
  O      597.796     -53.773    -685.702
  P      596.936     -54.529    -684.576
  C      596.037     -52.543    -683.187
  O      596.953     -53.625    -683.243
  C      595.429     -52.420    -681.787
  O      594.523     -53.517    -681.528
  C      596.423     -52.484    -680.637
  O      597.192     -51.295    -680.513
  C      595.494     -52.761    -679.449
  O      594.936     -51.540    -678.939
  C      594.388     -53.617    -680.093
  N      594.425     -55.003    -679.660
  C      593.373     -55.440    -678.851
  O      592.511     -54.641    -678.471
  N      593.325     -56.763    -678.485
  C      594.300     -57.554    -678.800
  N      594.198     -58.855    -678.422
  C      595.502     -57.098    -679.534
  C      595.497     -55.832    -679.933
  O      597.356     -55.944    -684.344
  O      595.416     -54.453    -685.080
  H      594.914     -55.200    -684.707
  H      594.304     -51.218    -679.616
  H      596.313     -57.786    -679.747
  H      596.330     -55.424    -680.494
  H      593.404     -53.194    -679.864
  H      596.015     -53.248    -678.624
  H      597.089     -53.351    -680.780
  H      594.860     -51.479    -681.741
  H      593.355     -59.136    -677.929
  H      595.226     -52.727    -683.908
  H      594.889     -59.551    -678.641
  H      596.550     -51.614    -683.469
  P      598.763     -51.416    -680.815
  C      598.511     -50.134    -683.060
  O      598.963     -51.299    -682.403
  O      599.095     -52.953    -680.495
  O      599.614     -50.497    -680.000
  H      599.965     -53.013    -680.062
  H      599.124     -49.974    -683.953
  H      598.595     -49.250    -682.417
  H      597.469     -50.277    -683.355
  H      599.564     -53.257    -686.610
  H      599.527     -54.858    -685.911
  H      599.649     -53.455    -684.876

 3  4  5  6  7  8  9  10  11  12  13  24  27  28  29  30  32 0
 6-311+G(2d,p)
 ****
 34  35 0
 6-311+G(2d,p)
 ****
 1  2  14  15  16  17  18  19  20  21  22  23  25  26 0
 3-21G
 ****
 31  33  36  37  38  39  40  41  42  43  44  45  46 0
 3-21G
 ****


