%nproc=1
%NoSave
%Mem=1900MB
#P OB98/GEN NMR

erre ene a

0 1
  C     -220.250     479.334     231.894
  O     -220.860     478.151     232.374
  H     -220.563     479.494     230.862
  H     -219.161     479.231     231.920
  H     -220.555     480.198     232.489
  P     -220.712     477.783     233.926
  C     -222.861     478.965     234.735
  O     -222.198     477.725     234.531
  C     -224.238     478.744     235.372
  O     -224.827     480.053     235.676
  C     -225.240     477.996     234.470
  O     -226.124     477.269     235.344
  C     -225.958     479.156     233.807
  O     -227.119     478.761     233.125
  C     -226.117     480.083     235.023
  N     -226.506     481.453     234.720
  C     -227.857     481.717     234.523
  O     -228.751     480.869     234.595
  N     -228.178     483.018     234.233
  C     -227.301     484.058     234.135
  O     -227.644     485.211     233.906
  C     -225.881     483.718     234.344
  C     -225.558     482.458     234.625
  O     -219.743     478.609     234.705
  O     -220.284     476.236     233.909
  H     -219.325     476.164     234.069
  H     -227.736     478.341     233.757
  H     -229.154     483.224     234.095
  H     -225.160     484.519     234.265
  H     -224.518     482.180     234.798
  H     -226.842     479.653     235.726
  H     -225.304     479.613     233.054
  H     -224.761     477.300     233.779
  H     -224.105     478.231     236.332
  H     -222.982     479.454     233.760
  H     -222.244     479.601     235.377
  P     -226.270     475.670     235.324
  C     -224.217     474.838     236.659
  O     -225.617     475.091     236.669
  O     -225.747     475.028     234.080
  O     -227.836     475.388     235.503
  H     -228.061     474.533     235.097
  H     -223.917     474.457     237.613
  H     -223.692     475.748     236.457
  H     -223.990     474.119     235.900

 6  7  8  9  10  11  12  13  14  15  16  27  31  32  33  34  35 0
 6-311+G(2d,p)
 ****
 36  37 0
 6-311+G(2d,p)
 ****
 1  2  3  4  5  17  18  19  20  21  22  23  24  25 0
 3-21G
 ****
 26  28  29  30  38  39  40  41  42  43  44  45 0
 3-21G
 ****


