%nproc=1
%NoSave
%Mem=1900MB
#P OB98/GEN NMR

erre ene a

0 1
  C      -14.755    -337.282    -274.631
  O      -14.643    -336.408    -273.520
  P      -13.358    -335.469    -273.369
  C      -11.873    -337.271    -272.210
  O      -12.077    -336.432    -273.325
  C      -10.379    -337.493    -271.946
  O      -10.246    -338.591    -271.013
  C       -9.564    -337.893    -273.176
  O       -8.182    -337.658    -272.904
  C       -9.824    -339.378    -273.246
  O       -8.838    -340.062    -274.023
  C       -9.894    -339.785    -271.755
  N      -10.891    -340.849    -271.521
  C      -10.432    -342.013    -270.908
  O       -9.281    -342.147    -270.495
  N      -11.326    -343.050    -270.862
  C      -12.583    -343.043    -271.406
  O      -13.237    -344.047    -271.626
  C      -13.079    -341.718    -271.817
  C      -12.218    -340.700    -271.884
  O      -13.484    -334.939    -271.861
  O      -13.278    -334.344    -274.347
  H       -8.948    -339.750    -274.956
  H      -13.901    -334.059    -271.844
  H      -10.946    -343.940    -270.547
  H      -14.119    -341.639    -272.116
  H      -12.548    -339.725    -272.239
  H       -8.922    -340.147    -271.393
  H      -10.795    -339.553    -273.732
  H       -9.861    -337.379    -274.098
  H       -9.952    -336.598    -271.482
  H      -12.384    -338.224    -272.376
  H      -12.331    -336.826    -271.316
  P       -7.185    -337.481    -274.151
  C       -5.900    -339.631    -273.561
  O       -6.680    -338.960    -274.532
  O       -6.110    -336.458    -273.993
  O       -8.180    -337.130    -275.357
  H       -7.675    -336.714    -276.090
  H       -6.055    -340.707    -273.666
  H       -6.175    -339.333    -272.542
  H       -4.840    -339.407    -273.730
  H      -15.673    -337.827    -274.565
  H      -13.933    -337.967    -274.630
  H      -14.744    -336.712    -275.536

 3  4  5  6  7  8  9  10  11  12  13  23  28  29  30  31  32 0
 6-311+G(2d,p)
 ****
 33  34 0
 6-311+G(2d,p)
 ****
 1  2  14  15  16  17  18  19  20  21  22  24  25  26  27 0
 3-21G
 ****
 35  36  37  38  39  40  41  42  43  44  45 0
 3-21G
 ****


