%nproc=1
%NoSave
%Mem=1900MB
#P OB98/GEN NMR

erre ene a

0 1
  C     -413.020      35.318    -373.000
  O     -411.739      35.711    -373.456
  H     -413.051      35.413    -371.912
  H     -413.199      34.273    -373.269
  H     -413.800      35.953    -373.433
  P     -411.580      35.966    -375.033
  C     -411.032      34.373    -377.008
  O     -411.642      34.521    -375.735
  C     -411.337      32.993    -377.584
  O     -410.826      31.959    -376.717
  C     -412.823      32.701    -377.764
  O     -413.317      33.242    -378.983
  C     -412.814      31.184    -377.805
  O     -412.359      30.735    -379.101
  C     -411.762      30.844    -376.736
  N     -415.184      28.370    -373.919
  C     -414.977      28.347    -375.283
  N     -415.804      27.556    -376.004
  N     -414.044      29.036    -375.895
  C     -413.309      29.800    -375.050
  C     -413.422      29.915    -373.683
  C     -414.441      29.134    -373.022
  O     -414.659      29.110    -371.814
  N     -412.497      30.790    -373.172
  C     -411.841      31.221    -374.232
  N     -412.296      30.654    -375.399
  O     -410.042      36.388    -375.167
  O     -412.480      37.005    -375.604
  H     -412.272      29.765    -379.054
  H     -409.986      37.358    -375.274
  H     -415.917      27.829    -373.502
  H     -411.026      31.932    -374.211
  H     -411.195      29.939    -376.983
  H     -413.801      30.750    -377.647
  H     -416.554      27.017    -375.599
  H     -413.414      33.044    -376.904
  H     -415.669      27.524    -377.007
  H     -410.808      32.903    -378.541
  H     -409.947      34.491    -376.901
  H     -411.412      35.149    -377.683
  P     -414.885      33.562    -379.093
  C     -417.013      32.159    -379.561
  O     -415.649      32.151    -379.180
  O     -415.019      34.151    -380.576
  O     -415.411      34.518    -378.079
  H     -415.237      35.102    -380.536
  H     -417.385      31.156    -379.575
  H     -417.108      32.589    -380.536
  H     -417.576      32.738    -378.859

 6  7  8  9  10  11  12  13  14  15  26  29  33  34 0
 6-311+G(2d,p)
 ****
 36  38  39  40  41 0
 6-311+G(2d,p)
 ****
 1  2  3  4  5  16  17  18  19  20  21  22  23  24  25 0
 3-21G
 ****
 27  28  30  31  32  35  37  42  43  44  45  46  47 0
 3-21G
 ****
 48  49 0
 3-21G
 ****


