%nproc=1
%NoSave
%Mem=1900MB
#P OB98/GEN NMR

erre ene a

0 1
  C      269.796     443.075    -288.952
  O      268.787     442.581    -289.806
  P      268.465     441.008    -289.871
  C      269.545     440.730    -292.193
  O      269.589     440.358    -290.830
  C      270.817     440.277    -292.904
  O      271.999     440.692    -292.175
  C      270.959     438.765    -293.016
  O      270.025     438.081    -293.828
  C      272.424     438.630    -293.385
  O      272.633     438.845    -294.777
  C      273.057     439.766    -292.545
  N      273.772     439.257    -291.371
  C      275.078     438.832    -291.593
  O      275.629     438.869    -292.691
  N      275.728     438.322    -290.498
  C      275.204     438.162    -289.247
  O      275.828     437.653    -288.323
  C      273.811     438.609    -289.086
  C      273.166     439.135    -290.134
  O      267.067     440.662    -290.236
  O      268.910     440.478    -288.417
  H      272.083     438.184    -295.250
  H      269.845     440.629    -288.196
  H      276.670     437.998    -290.642
  H      273.365     438.509    -288.103
  H      272.137     439.467    -290.034
  H      273.770     440.336    -293.158
  H      272.808     437.629    -293.150
  H      270.824     438.336    -292.006
  H      270.854     440.764    -293.882
  H      269.473     441.819    -292.260
  H      268.646     440.309    -292.669
  P      269.211     436.785    -293.342
  C      270.600     435.192    -294.848
  O      270.147     435.496    -293.542
  O      267.795     436.680    -293.789
  O      269.234     436.971    -291.742
  H      268.434     436.580    -291.366
  H      271.189     434.278    -294.798
  H      271.252     435.998    -295.219
  H      269.764     435.049    -295.524
  H      269.858     444.139    -289.051
  H      270.735     442.637    -289.219
  H      269.560     442.824    -287.939

 3  4  5  6  7  8  9  10  11  12  13  23  28  29  30  31  32 0
 6-311+G(2d,p)
 ****
 33  34 0
 6-311+G(2d,p)
 ****
 1  2  14  15  16  17  18  19  20  21  22  24  25  26  27 0
 3-21G
 ****
 35  36  37  38  39  40  41  42  43  44  45 0
 3-21G
 ****


