%nproc=1
%NoSave
%Mem=1900MB
#P OB98/GEN NMR

erre ene a

0 1
  C      305.091    -898.830     716.237
  O      303.973    -898.000     716.501
  H      305.931    -898.190     715.926
  H      304.862    -899.520     715.434
  H      305.393    -899.370     717.134
  P      302.667    -898.660     717.159
  C      302.689    -897.340     719.373
  O      302.030    -897.550     718.133
  C      302.284    -895.970     719.965
  O      302.811    -894.920     719.100
  C      300.764    -895.760     720.063
  O      300.537    -894.880     721.185
  C      300.492    -895.030     718.751
  O      299.193    -894.470     718.694
  C      301.686    -894.090     718.717
  N      301.944    -893.420     717.440
  C      301.469    -892.130     717.269
  O      300.841    -891.490     718.137
  N      301.707    -891.560     716.065
  C      302.389    -892.150     715.005
  O      302.604    -891.560     713.952
  C      302.866    -893.510     715.248
  C      302.621    -894.080     716.436
  O      302.856    -900.000     717.764
  O      301.614    -898.700     715.950
  H      301.562    -899.610     715.583
  H      298.534    -895.200     718.702
  H      301.387    -890.620     715.918
  H      303.375    -893.990     714.446
  H      302.962    -895.090     716.646
  H      301.586    -893.330     719.498
  H      300.523    -895.750     717.930
  H      300.202    -896.680     720.204
  H      302.769    -895.860     720.931
  H      303.778    -897.360     719.202
  H      302.424    -898.130     720.064
  P      299.527    -895.220     722.383
  C      301.254    -894.890     724.302
  O      300.021    -894.450     723.698
  O      299.307    -896.680     722.605
  O      298.155    -894.490     721.999
  H      297.401    -894.950     722.429
  H      301.461    -894.293     725.165
  H      302.053    -894.788     723.597
  H      301.163    -895.916     724.592

 6  7  8  9  10  11  12  13  14  15  16  27  31  32  33  34  35 0
 6-311+G(2d,p)
 ****
 36  37 0
 6-311+G(2d,p)
 ****
 1  2  3  4  5  17  18  19  20  21  22  23  24  25 0
 3-21G
 ****
 26  28  29  30  38  39  40  41  42  43  44  45 0
 3-21G
 ****


