%nproc=1
%NoSave
%Mem=1900MB
#P OB98/GEN NMR

erre ene a

0 1
  C      157.701     -88.226     125.266
  O      157.043     -87.091     125.857
  P      155.594     -87.287     126.522
  C      155.671     -85.338     128.256
  O      155.053     -85.894     127.105
  C      155.482     -83.813     128.308
  O      156.326     -83.169     127.310
  C      154.044     -83.342     128.052
  O      153.842     -82.158     128.836
  C      154.071     -82.991     126.575
  O      153.016     -82.126     126.183
  C      155.467     -82.368     126.470
  N      155.993     -82.293     125.108
  C      155.863     -81.090     124.422
  O      155.281     -80.101     124.861
  N      156.410     -81.060     123.163
  C      157.021     -82.097     122.523
  O      157.463     -82.015     121.386
  C      157.105     -83.352     123.285
  C      156.595     -83.390     124.519
  O      155.949     -88.098     127.859
  O      154.611     -88.054     125.700
  H      152.925     -82.198     125.217
  H      155.327     -88.842     127.967
  H      156.337     -80.190     122.658
  H      157.587     -84.199     122.815
  H      156.658     -84.303     125.103
  H      155.451     -81.363     126.906
  H      153.987     -83.910     125.982
  H      153.293     -84.097     128.304
  H      155.830     -83.462     129.288
  H      156.741     -85.562     128.233
  H      155.241     -85.801     129.150
  P      152.962     -82.269     130.177
  C      154.503     -80.572     131.440
  O      153.206     -80.927     131.015
  O      153.813     -83.365     130.984
  O      151.540     -82.671     129.955
  H      154.767     -83.191     130.961
  H      155.246     -80.770     130.664
  H      154.759     -81.135     132.343
  H      154.517     -79.506     131.675
  H      158.649     -87.924     124.872
  H      157.095     -88.618     124.476
  H      157.848     -88.980     126.010

 3  4  5  6  7  8  9  10  11  12  13  23  28  29  30  31  32 0
 6-311+G(2d,p)
 ****
 33  34 0
 6-311+G(2d,p)
 ****
 1  2  14  15  16  17  18  19  20  21  22  24  25  26 0
 3-21G
 ****
 27  35  36  37  38  39  40  41  42  43  44  45 0
 3-21G
 ****


