%nproc=1
%NoSave
%Mem=1900MB
#P OB98/GEN NMR

erre ene a

0 1
  C       67.541    -115.895      69.243
  O       67.074    -114.595      69.546
  H       68.599    -115.835      68.978
  H       66.987    -116.305      68.394
  H       67.429    -116.549      70.112
  P       65.515    -114.466      69.904
  C       65.599    -115.090      72.417
  O       65.240    -115.495      71.105
  C       64.625    -115.667      73.440
  O       63.261    -115.368      73.072
  C       64.713    -117.180      73.608
  O       65.754    -117.531      74.504
  C       63.331    -117.497      74.159
  O       63.260    -117.214      75.573
  C       62.439    -116.530      73.367
  N       58.992    -119.670      71.432
  C       59.328    -119.416      72.746
  N       58.666    -120.124      73.689
  N       60.240    -118.554      73.110
  C       60.861    -117.962      72.062
  C       60.622    -118.130      70.718
  C       59.571    -119.048      70.334
  O       59.171    -119.254      69.191
  N       61.447    -117.336      69.964
  C       62.205    -116.718      70.850
  N       61.892    -117.069      72.136
  O       64.788    -115.158      68.654
  O       65.018    -113.077      70.113
  H       62.338    -117.307      75.871
  H       63.973    -114.661      68.452
  H       58.261    -120.322      71.213
  H       62.983    -116.004      70.611
  H       61.588    -116.181      73.961
  H       63.085    -118.554      74.045
  H       58.184    -120.983      73.472
  H       64.840    -117.677      72.639
  H       58.966    -119.989      74.647
  H       64.815    -115.163      74.396
  H       65.575    -113.997      72.469
  H       66.614    -115.436      72.637
  P       66.127    -119.081      74.661
  C       68.326    -118.823      73.305
  O       67.078    -119.488      73.433
  O       64.744    -119.816      74.325
  O       66.623    -119.469      76.012
  H       64.339    -120.150      75.147
  H       68.844    -119.198      72.447
  H       68.915    -118.998      74.181
  H       68.160    -117.772      73.191

 6  7  8  9  10  11  12  13  14  15  26  29  33  34 0
 6-311+G(2d,p)
 ****
 36  38  39  40  41 0
 6-311+G(2d,p)
 ****
 1  2  3  4  5  16  17  18  19  20  21  22  23  24  25 0
 3-21G
 ****
 27  28  30  31  32  35  37  42  43  44  45  46  47 0
 3-21G
 ****
 48  49 0
 3-21G
 ****


