%nproc=1
%NoSave
%Mem=1900MB
#P OB98/GEN NMR

erre ene a

0 1
  C     -212.496     315.689     165.887
  O     -213.367     315.001     165.006
  P     -213.767     313.473     165.268
  C     -212.062     312.657     163.537
  O     -212.509     312.559     164.879
  C     -210.950     311.648     163.237
  O     -210.683     311.631     161.810
  C     -209.626     311.944     163.957
  O     -209.063     310.687     164.350
  C     -208.781     312.596     162.879
  O     -207.394     312.504     163.148
  C     -209.260     311.825     161.637
  N     -208.967     312.529     160.403
  C     -207.886     312.050     159.648
  O     -207.160     311.166     160.098
  N     -207.662     312.599     158.410
  C     -208.327     313.652     158.044
  N     -208.114     314.127     156.784
  C     -209.297     314.333     158.921
  C     -209.596     313.703     160.055
  O     -215.058     313.046     164.647
  O     -213.831     313.345     166.861
  H     -214.691     312.968     167.120
  H     -207.188     313.028     163.951
  H     -209.734     315.282     158.630
  H     -210.323     314.102     160.759
  H     -208.805     310.828     161.603
  H     -209.047     313.656     162.792
  H     -209.757     312.570     164.847
  H     -211.313     310.651     163.511
  H     -207.474     313.608     156.194
  H     -211.678     313.665     163.381
  H     -208.798     314.720     156.311
  H     -212.907     312.516     162.848
  P     -208.471     310.540     165.831
  C     -206.030     311.113     165.133
  O     -207.152     311.452     165.929
  O     -207.850     309.061     165.790
  O     -209.450     310.648     166.960
  H     -207.814     308.703     166.701
  H     -205.212     311.794     165.376
  H     -206.275     311.221     164.076
  H     -205.712     310.090     165.344
  H     -212.355     316.691     165.539
  H     -211.552     315.187     165.919
  H     -212.923     315.709     166.868

 3  4  5  6  7  8  9  10  11  12  13  24  27  28  29  30  32 0
 6-311+G(2d,p)
 ****
 34  35 0
 6-311+G(2d,p)
 ****
 1  2  14  15  16  17  18  19  20  21  22  23  25  26 0
 3-21G
 ****
 31  33  36  37  38  39  40  41  42  43  44  45  46 0
 3-21G
 ****


