%nproc=1
%NoSave
%Mem=1900MB
#P OB98/GEN NMR

erre ene a

0 1
  C      -51.701    -299.925     208.096
  O      -50.562    -300.095     207.278
  H      -52.585    -299.749     207.478
  H      -51.855    -300.837     208.680
  H      -51.553    -299.087     208.782
  P      -50.183    -298.861     206.323
  C      -47.628    -299.082     206.676
  O      -48.708    -299.153     205.755
  C      -47.476    -300.414     207.407
  O      -47.235    -301.448     206.417
  C      -46.320    -300.445     208.421
  O      -46.773    -300.943     209.687
  C      -45.338    -301.442     207.833
  O      -44.652    -302.197     208.825
  C      -46.228    -302.313     206.959
  N      -42.915    -306.054     205.942
  C      -43.763    -305.870     206.979
  N      -44.689    -304.903     207.142
  C      -44.717    -304.085     206.076
  C      -43.932    -304.162     204.937
  C      -42.978    -305.193     204.902
  N      -42.076    -305.348     203.871
  N      -44.241    -303.140     204.057
  C      -45.167    -302.435     204.675
  N      -45.476    -302.959     205.904
  O      -49.958    -297.656     207.357
  O      -51.217    -298.523     205.304
  H      -44.162    -302.904     208.366
  H      -50.604    -296.951     207.162
  H      -43.684    -306.593     207.787
  H      -45.610    -301.518     204.304
  H      -46.735    -303.093     207.545
  H      -44.596    -300.899     207.234
  H      -45.857    -299.462     208.563
  H      -48.425    -300.655     207.900
  H      -47.822    -298.293     207.409
  H      -41.352    -306.040     203.981
  H      -42.046    -304.643     203.148
  H      -46.709    -298.837     206.131
  P      -46.945    -299.853     210.859
  C      -48.848    -301.197     212.006
  O      -47.566    -300.597     212.141
  O      -48.140    -298.931     210.324
  O      -45.713    -299.052     211.118
  H      -47.850    -297.998     210.284
  H      -49.129    -301.651     212.933
  H      -48.814    -301.943     211.240
  H      -49.566    -300.449     211.743

 6  7  8  9  10  11  12  13  14  15  25  28  32  33  34  35 0
 6-311+G(2d,p)
 ****
 36  39  40 0
 6-311+G(2d,p)
 ****
 1  2  3  4  5  16  17  18  19  20  21  22  23  24 0
 3-21G
 ****
 26  27  29  30  31  37  38  41  42  43  44  45  46  47  48 0
 3-21G
 ****


