%nproc=1
%NoSave
%Mem=1900MB
#P OB98/GEN NMR

erre ene a

0 1
  C     -342.001     170.265    -328.077
  O     -341.953     169.895    -326.697
  P     -343.200     169.052    -326.135
  C     -342.736     169.674    -323.653
  O     -342.870     168.639    -324.617
  C     -342.648     169.069    -322.247
  O     -343.839     168.326    -321.908
  C     -341.497     168.082    -322.081
  O     -340.259     168.762    -321.975
  C     -341.927     167.357    -320.812
  O     -341.617     168.145    -319.646
  C     -343.453     167.279    -320.986
  N     -345.431     162.732    -319.714
  C     -345.090     163.806    -318.977
  N     -344.562     164.983    -319.388
  C     -344.416     164.990    -320.723
  C     -344.718     163.970    -321.615
  C     -345.253     162.793    -321.055
  N     -345.588     161.693    -321.814
  N     -344.424     164.345    -322.908
  C     -343.922     165.562    -322.799
  N     -343.907     165.996    -321.502
  O     -343.105     167.675    -326.940
  O     -344.516     169.727    -326.337
  H     -342.000     169.034    -319.792
  H     -343.827     167.618    -327.589
  H     -345.253     163.716    -317.905
  H     -343.561     166.161    -323.628
  H     -343.987     167.455    -320.047
  H     -341.440     166.384    -320.688
  H     -341.468     167.386    -322.923
  H     -342.541     169.896    -321.529
  H     -343.584     170.357    -323.703
  H     -345.889     160.857    -321.335
  H     -345.374     161.690    -322.803
  H     -341.836     170.259    -323.884
  P     -338.990     168.113    -322.716
  C     -337.545     168.960    -320.758
  O     -337.745     168.974    -322.157
  O     -339.160     168.656    -324.201
  O     -338.862     166.631    -322.563
  H     -339.377     169.612    -324.217
  H     -336.659     169.554    -320.526
  H     -337.394     167.934    -320.406
  H     -338.410     169.403    -320.256
  H     -341.121     170.819    -328.329
  H     -342.866     170.870    -328.254
  H     -342.053     169.383    -328.681

 3  4  5  6  7  8  9  10  11  12  22  25  29  30  31  32 0
 6-311+G(2d,p)
 ****
 33  36  37 0
 6-311+G(2d,p)
 ****
 1  2  13  14  15  16  17  18  19  20  21  23  24  26 0
 3-21G
 ****
 27  28  34  35  38  39  40  41  42  43  44  45  46  47  48 0
 3-21G
 ****


