%nproc=1
%NoSave
%Mem=1900MB
#P OB98/GEN NMR

erre ene a

0 1
  C       35.524     224.272     -13.919
  O       36.673     224.168     -14.735
  H       35.328     225.322     -13.687
  H       34.668     223.866     -14.465
  H       35.656     223.703     -12.995
  P       38.077     224.549     -14.058
  C       39.295     222.446     -14.980
  O       39.204     223.864     -14.975
  C       38.406     221.858     -16.077
  O       38.782     222.448     -17.349
  C       38.531     220.338     -16.214
  O       37.241     219.792     -16.496
  C       39.440     220.165     -17.419
  O       39.251     218.910     -18.062
  C       39.049     221.371     -18.268
  N       40.282     224.475     -22.128
  C       39.187     224.404     -21.343
  N       38.939     223.547     -20.328
  C       39.992     222.735     -20.128
  C       41.173     222.690     -20.847
  C       41.298     223.609     -21.902
  N       42.395     223.666     -22.732
  N       41.998     221.693     -20.362
  C       41.324     221.149     -19.367
  N       40.106     221.743     -19.192
  O       38.072     223.647     -12.732
  O       38.280     225.994     -13.752
  H       38.294     218.797     -18.239
  H       37.523     224.078     -12.049
  H       38.402     225.123     -21.559
  H       41.666     220.326     -18.755
  H       38.146     221.190     -18.864
  H       40.487     220.232     -17.103
  H       38.939     219.863     -15.320
  H       37.369     222.156     -15.884
  H       38.972     222.066     -14.005
  H       42.375     224.319     -23.498
  H       43.134     222.989     -22.618
  H       40.336     222.152     -15.151
  P       36.368     219.314     -15.237
  C       33.919     219.497     -16.064
  O       35.015     218.641     -15.778
  O       35.875     220.689     -14.584
  O       37.137     218.489     -14.255
  H       36.055     220.687     -13.625
  H       33.093     218.914     -16.413
  H       34.203     220.200     -16.819
  H       33.635     220.022     -15.176

 6  7  8  9  10  11  12  13  14  15  25  28  32  33  34  35 0
 6-311+G(2d,p)
 ****
 36  39  40 0
 6-311+G(2d,p)
 ****
 1  2  3  4  5  16  17  18  19  20  21  22  23  24 0
 3-21G
 ****
 26  27  29  30  31  37  38  41  42  43  44  45  46  47 0
 3-21G
 ****
 48 0
 3-21G
 ****


