%nproc=1
%NoSave
%Mem=1900MB
#P OB98/GEN NMR

erre ene a

0 1
  C       44.587     -71.017    -268.780
  O       45.457     -72.132    -268.748
  H       44.293     -70.742    -267.763
  H       45.114     -70.175    -269.233
  H       43.703     -71.242    -269.377
  P       44.865     -73.472    -268.091
  C       44.672     -74.519    -270.452
  O       44.005     -74.205    -269.238
  C       43.882     -75.573    -271.225
  O       43.823     -76.780    -270.421
  C       42.437     -75.157    -271.557
  O       42.160     -75.368    -272.947
  C       41.579     -76.105    -270.744
  O       40.369     -76.462    -271.396
  C       42.499     -77.306    -270.551
  N       39.921     -81.409    -268.966
  C       40.423     -81.081    -270.177
  N       41.181     -80.022    -270.515
  C       41.449     -79.268    -269.432
  C       41.026     -79.482    -268.131
  C       40.207     -80.605    -267.918
  N       39.650     -80.908    -266.694
  N       41.493     -78.489    -267.290
  C       42.149     -77.657    -268.079
  N       42.133     -78.086    -269.383
  O       43.752     -72.923    -267.076
  O       45.872     -74.319    -267.395
  H       39.810     -75.665    -271.434
  H       43.992     -73.194    -266.171
  H       40.167     -81.760    -270.992
  H       42.604     -76.725    -267.772
  H       42.487     -77.974    -271.424
  H       41.334     -75.635    -269.788
  H       42.229     -74.109    -271.300
  H       44.433     -75.816    -272.139
  H       45.670     -74.912    -270.229
  H       38.981     -81.662    -266.654
  H       39.774     -80.254    -265.933
  H       44.777     -73.603    -271.046
  P       42.005     -74.044    -273.851
  C       43.993     -74.561    -275.449
  O       43.454     -73.686    -274.461
  O       41.750     -72.891    -272.771
  O       40.897     -74.118    -274.845
  H       40.916     -72.433    -272.966
  H       44.952     -74.201    -275.760
  H       43.335     -74.596    -276.292
  H       44.097     -75.543    -275.037

 6  7  8  9  10  11  12  13  14  15  25  28  32  33  34  35 0
 6-311+G(2d,p)
 ****
 36  39  40 0
 6-311+G(2d,p)
 ****
 1  2  3  4  5  16  17  18  19  20  21  22  23  24 0
 3-21G
 ****
 26  27  29  30  31  37  38  41  42  43  44  45  46  47  48 0
 3-21G
 ****


