%nproc=1
%NoSave
%Mem=1900MB
#P OB98/GEN NMR

erre ene a

0 1
  C      -13.862      -7.903     130.975
  O      -14.586      -8.247     129.810
  H      -14.205      -6.934     131.346
  H      -14.050      -8.659     131.742
  H      -12.790      -7.867     130.770
  P      -14.231      -7.451     128.463
  C      -15.620      -9.152     127.081
  O      -15.403      -7.790     127.415
  C      -16.629      -9.268     125.939
  O      -17.922      -8.798     126.415
  C      -16.264      -8.452     124.689
  O      -16.625      -9.211     123.530
  C      -17.174      -7.240     124.786
  O      -17.441      -6.647     123.520
  C      -18.407      -7.845     125.452
  N      -21.826      -4.192     124.546
  C      -21.403      -5.236     123.801
  N      -20.523      -6.200     124.142
  C      -20.121      -6.046     125.416
  C      -20.470      -5.039     126.299
  C      -21.356      -4.063     125.810
  N      -21.740      -2.959     126.535
  N      -19.802      -5.198     127.499
  C      -19.047      -6.266     127.333
  N      -19.205      -6.812     126.089
  O      -12.975      -8.273     127.901
  O      -13.920      -6.002     128.634
  H      -17.858      -5.775     123.660
  H      -12.154      -7.919     128.287
  H      -21.815      -5.301     122.798
  H      -18.354      -6.664     128.060
  H      -19.056      -8.372     124.740
  H      -16.710      -6.484     125.430
  H      -15.205      -8.174     124.634
  H      -16.748     -10.328     125.686
  H      -16.015      -9.677     127.956
  H      -22.292      -2.258     126.065
  H      -21.314      -2.792     127.434
  H      -14.669      -9.612     126.795
  P      -15.439      -9.683     122.558
  C      -16.312     -12.134     122.674
  O      -15.873     -11.055     121.855
  O      -14.290     -10.134     123.576
  O      -14.963      -8.616     121.625
  H      -13.411      -9.953     123.195
  H      -16.563     -12.971     122.057
  H      -17.173     -11.831     123.232
  H      -15.529     -12.411     123.349

 6  7  8  9  10  11  12  13  14  15  25  28  32  33  34  35 0
 6-311+G(2d,p)
 ****
 36  39  40 0
 6-311+G(2d,p)
 ****
 1  2  3  4  5  16  17  18  19  20  21  22  23  24 0
 3-21G
 ****
 26  27  29  30  31  37  38  41  42  43  44  45  46  47 0
 3-21G
 ****
 48 0
 3-21G
 ****


