%nproc=1
%NoSave
%Mem=1900MB
#P OB98/GEN NMR

erre ene a

0 1
  C      171.384     437.778    -375.556
  O      171.044     436.414    -375.410
  H      172.407     437.849    -375.924
  H      171.319     438.284    -374.587
  H      170.714     438.263    -376.276
  P      169.516     436.084    -375.049
  C      168.441     437.257    -377.143
  O      168.648     437.242    -375.740
  C      167.085     437.876    -377.490
  O      167.083     439.263    -377.060
  C      166.760     437.851    -378.984
  O      165.352     437.643    -379.134
  C      167.112     439.251    -379.444
  O      166.423     439.618    -380.638
  C      166.747     440.076    -378.200
  N      167.431     441.369    -378.163
  C      167.208     442.234    -379.235
  O      166.475     441.891    -380.169
  N      167.850     443.441    -379.260
  C      168.697     443.743    -378.323
  N      169.317     444.949    -378.415
  C      168.998     442.844    -377.189
  C      168.325     441.692    -377.169
  O      169.461     436.443    -373.491
  O      169.086     434.688    -375.378
  H      166.632     440.554    -380.843
  H      169.903     437.279    -373.273
  H      169.714     443.133    -376.438
  H      168.476     440.973    -376.370
  H      165.660     440.265    -378.164
  H      168.185     439.323    -379.641
  H      167.305     437.074    -379.525
  H      166.311     437.360    -376.908
  H      169.101     445.523    -379.221
  H      168.490     436.238    -377.544
  H      170.031     445.266    -377.775
  H      169.251     437.841    -377.596
  P      164.713     437.573    -380.608
  C      165.367     435.086    -380.921
  O      165.441     436.411    -381.440
  O      164.575     438.880    -381.314
  O      163.264     436.936    -380.331
  H      162.622     437.403    -380.899
  H      165.892     434.418    -381.572
  H      164.342     434.786    -380.853
  H      165.812     435.059    -379.948

 6  7  8  9  10  11  12  13  14  15  16  26  30  31  32  33  35 0
 6-311+G(2d,p)
 ****
 37  38 0
 6-311+G(2d,p)
 ****
 1  2  3  4  5  17  18  19  20  21  22  23  24  25 0
 3-21G
 ****
 27  28  29  34  36  39  40  41  42  43  44  45  46 0
 3-21G
 ****


