%nproc=1
%NoSave
%Mem=1900MB
#P OB98/GEN NMR

erre ene a

0 1
  C     -409.084    -748.778    -914.776
  O     -408.134    -747.830    -915.212
  H     -409.209    -749.535    -915.551
  H     -410.055    -748.301    -914.589
  H     -408.734    -749.271    -913.869
  P     -407.880    -746.521    -914.317
  C     -405.855    -747.504    -913.059
  O     -407.196    -747.028    -912.957
  C     -405.520    -748.424    -911.883
  O     -405.264    -747.592    -910.712
  C     -406.645    -749.408    -911.525
  O     -406.048    -750.642    -911.132
  C     -407.309    -748.742    -910.341
  O     -408.001    -749.674    -909.533
  C     -406.136    -748.031    -909.652
  N     -406.593    -746.914    -908.825
  C     -406.307    -747.010    -907.458
  O     -405.695    -747.988    -907.003
  N     -406.783    -746.034    -906.622
  C     -407.536    -745.077    -907.094
  N     -407.995    -744.169    -906.202
  C     -407.870    -744.958    -908.529
  C     -407.372    -745.899    -909.328
  O     -409.052    -745.617    -914.138
  O     -406.681    -745.778    -915.084
  H     -407.361    -750.303    -909.143
  H     -407.037    -745.148    -915.734
  H     -408.493    -744.147    -908.876
  H     -407.573    -745.900    -910.397
  H     -405.575    -748.733    -909.018
  H     -408.039    -747.992    -910.703
  H     -407.345    -749.575    -912.353
  H     -404.587    -748.951    -912.108
  H     -407.753    -744.303    -905.219
  H     -405.193    -746.634    -913.056
  H     -408.622    -743.402    -906.447
  H     -405.731    -748.047    -914.001
  P     -405.796    -751.809    -912.209
  C     -403.249    -751.613    -912.327
  O     -404.464    -751.474    -913.052
  O     -406.980    -752.156    -913.046
  O     -405.353    -753.069    -911.317
  H     -405.638    -753.895    -911.764
  H     -402.424    -751.371    -912.964
  H     -403.152    -752.622    -911.984
  H     -403.257    -750.950    -911.487

 6  7  8  9  10  11  12  13  14  15  16  26  30  31  32  33  35 0
 6-311+G(2d,p)
 ****
 37  38 0
 6-311+G(2d,p)
 ****
 1  2  3  4  5  17  18  19  20  21  22  23  24  25 0
 3-21G
 ****
 27  28  29  34  36  39  40  41  42  43  44  45  46 0
 3-21G
 ****


