%nproc=1
%NoSave
%Mem=1900MB
#P OB98/GEN NMR

erre ene a

0 1
  C      397.386    -782.355    1149.977
  O      398.523    -782.122    1150.787
  H      397.645    -782.125    1148.942
  H      396.573    -781.702    1150.299
  H      397.064    -783.404    1150.046
  P      398.530    -782.766    1152.263
  C      400.263    -784.600    1151.611
  O      398.951    -784.311    1152.081
  C      400.953    -785.657    1152.493
  O      400.241    -786.917    1152.285
  C      402.422    -785.893    1152.149
  O      403.136    -786.155    1153.374
  C      402.384    -787.171    1151.334
  O      403.641    -787.853    1151.350
  C      401.248    -787.919    1152.007
  N      400.925    -792.920    1151.688
  C      401.310    -792.118    1152.753
  N      401.751    -792.713    1153.862
  N      401.293    -790.802    1152.703
  C      400.823    -790.307    1151.517
  C      400.397    -791.002    1150.404
  C      400.448    -792.449    1150.453
  O      400.128    -793.225    1149.570
  N      400.040    -790.139    1149.404
  C      400.258    -788.931    1149.886
  N      400.740    -788.992    1151.179
  O      396.955    -782.847    1152.594
  O      399.289    -782.018    1153.293
  H      403.550    -788.684    1150.838
  H      396.693    -782.050    1153.115
  H      400.965    -793.920    1151.776
  H      400.133    -788.015    1149.354
  H      401.545    -788.372    1152.959
  H      402.141    -786.919    1150.288
  H      401.787    -793.714    1153.998
  H      402.910    -785.049    1151.628
  H      402.022    -792.141    1154.646
  H      400.803    -785.385    1153.535
  H      400.859    -783.665    1151.661
  H      400.206    -784.917    1150.574
  P      404.647    -785.596    1153.515
  C      404.146    -783.637    1155.171
  O      404.578    -784.027    1153.860
  O      405.179    -785.634    1152.012
  O      405.493    -786.423    1154.426
  H      406.115    -785.846    1152.006
  H      404.153    -782.570    1155.246
  H      404.808    -784.050    1155.903
  H      403.154    -784.000    1155.342

 6  7  8  9  10  11  12  13  14  15  26  29  33  34 0
 6-311+G(2d,p)
 ****
 36  38  39  40  41 0
 6-311+G(2d,p)
 ****
 1  2  3  4  5  16  17  18  19  20  21  22  23  24  25 0
 3-21G
 ****
 27  28  30  31  32  35  37  42  43  44  45  46  47 0
 3-21G
 ****
 48  49 0
 3-21G
 ****


