%nproc=1
%NoSave
%Mem=1900MB
#P OB98/GEN NMR

erre ene a

0 1
  C      778.368    -561.067     159.444
  O      779.258    -561.487     158.432
  P      780.786    -561.856     158.763
  C      780.261    -564.375     158.861
  O      780.982    -563.347     158.197
  C      780.889    -565.730     158.588
  O      780.584    -566.118     157.230
  C      782.414    -565.784     158.681
  O      782.919    -565.973     160.011
  C      782.717    -567.027     157.849
  O      782.455    -568.208     158.636
  C      781.699    -566.899     156.719
  N      785.054    -567.374     152.880
  C      784.698    -568.207     153.891
  N      783.809    -568.006     154.876
  C      783.231    -566.798     154.758
  C      783.472    -565.847     153.762
  C      784.429    -566.165     152.810
  N      784.771    -565.323     151.768
  N      782.677    -564.734     153.980
  C      781.968    -565.019     155.045
  N      782.249    -566.265     155.544
  O      781.175    -561.644     160.186
  O      781.631    -560.964     157.743
  H      782.617    -568.974     158.050
  H      782.562    -560.914     158.033
  H      785.202    -569.173     153.902
  H      781.242    -564.361     155.494
  H      781.288    -567.874     156.415
  H      783.761    -567.074     157.531
  H      782.887    -564.906     158.210
  H      780.436    -566.469     159.262
  H      779.232    -564.373     158.480
  H      785.383    -565.694     151.045
  H      784.204    -564.511     151.618
  H      780.231    -564.160     159.929
  P      784.506    -565.808     160.217
  C      784.037    -563.329     160.936
  O      784.678    -564.554     161.209
  O      785.294    -565.728     158.961
  O      784.870    -567.063     161.141
  H      784.504    -567.046     162.048
  H      784.137    -562.680     161.801
  H      782.972    -563.475     160.745
  H      784.506    -562.843     160.073
  H      777.407    -560.872     159.016
  H      778.742    -560.175     159.900
  H      778.280    -561.836     160.183

 3  4  5  6  7  8  9  10  11  12  22  25  29  30  31  32 0
 6-311+G(2d,p)
 ****
 33  36  37 0
 6-311+G(2d,p)
 ****
 1  2  13  14  15  16  17  18  19  20  21  23  24  26 0
 3-21G
 ****
 27  28  34  35  38  39  40  41  42  43  44  45  46  47  48 0
 3-21G
 ****


