%nproc=1
%NoSave
%Mem=1900MB
#P OB98/GEN NMR

erre ene a

0 1
  C      263.475    -703.458     126.509
  O      262.923    -703.275     125.206
  P      263.202    -701.872     124.477
  C      263.611    -702.978     122.132
  O      262.875    -702.060     122.920
  C      263.322    -704.431     122.567
  O      261.882    -704.619     122.604
  C      263.853    -705.508     121.630
  O      263.902    -706.755     122.335
  C      262.762    -705.566     120.580
  O      262.819    -706.770     119.826
  C      261.483    -705.364     121.422
  N      260.412    -704.635     120.708
  C      259.297    -705.351     120.272
  O      259.155    -706.570     120.437
  N      258.358    -704.644     119.584
  C      258.378    -703.299     119.329
  O      257.551    -702.740     118.637
  C      259.501    -702.572     119.933
  C      260.444    -703.255     120.575
  O      264.792    -701.727     124.532
  O      262.512    -700.719     125.120
  H      262.640    -707.506     120.458
  H      265.048    -701.079     125.208
  H      257.574    -705.164     119.208
  H      259.526    -701.492     119.816
  H      261.295    -702.729     121.015
  H      261.061    -706.322     121.739
  H      262.879    -704.738     119.874
  H      264.830    -705.287     121.190
  H      263.701    -704.580     123.580
  H      264.676    -702.767     122.210
  H      263.343    -702.859     121.080
  P      265.204    -707.673     122.151
  C      265.353    -708.483     124.584
  O      265.081    -708.838     123.241
  O      266.508    -706.951     122.112
  O      264.897    -708.438     120.775
  H      265.733    -708.800     120.411
  H      264.770    -709.134     125.243
  H      265.079    -707.440     124.790
  H      266.412    -708.622     124.787
  H      263.214    -704.429     126.874
  H      263.085    -702.712     127.170
  H      264.540    -703.370     126.461

 3  4  5  6  7  8  9  10  11  12  13  23  28  29  30  31  32 0
 6-311+G(2d,p)
 ****
 33  34 0
 6-311+G(2d,p)
 ****
 1  2  14  15  16  17  18  19  20  21  22  24  25  26  27 0
 3-21G
 ****
 35  36  37  38  39  40  41  42  43  44  45 0
 3-21G
 ****


