%nproc=1
%NoSave
%Mem=1900MB
#P OB98/GEN NMR

erre ene a

0 1
  C     -105.092     619.640     176.214
  O     -105.555     620.805     176.866
  H     -105.604     619.548     175.251
  H     -105.316     618.753     176.814
  H     -104.017     619.707     176.038
  P     -104.999     621.054     178.350
  C     -103.382     623.004     177.727
  O     -103.523     621.638     178.107
  C     -101.951     623.471     178.013
  O     -101.634     623.315     179.416
  C     -100.883     622.681     177.269
  O     -100.747     623.084     175.916
  C      -99.661     623.046     178.086
  O      -99.236     624.388     177.760
  C     -100.232     622.986     179.524
  N     -100.059     621.678     180.154
  C      -98.760     621.342     180.560
  O      -97.824     622.121     180.381
  N      -98.547     620.118     181.138
  C      -99.533     619.294     181.308
  N      -99.262     618.083     181.876
  C     -100.917     619.605     180.913
  C     -101.105     620.803     180.347
  O     -104.699     619.578     178.895
  O     -105.866     621.883     179.249
  H      -99.923     624.992     178.093
  H     -104.232     619.629     179.768
  H     -101.716     618.892     181.062
  H     -102.095     621.100     180.025
  H      -99.765     623.743     180.165
  H      -98.802     622.389     177.909
  H     -101.048     621.604     177.348
  H     -101.899     624.540     177.779
  H      -98.295     617.870     182.081
  H     -104.092     623.599     178.302
  H      -99.932     617.325     181.871
  H     -103.590     623.120     176.663
  P      -99.824     622.175     174.960
  C     -101.200     621.423     172.890
  O     -100.801     621.132     174.228
  O      -99.025     621.253     175.996
  O      -98.903     622.942     174.061
  H      -98.107     621.122     175.715
  H     -101.845     620.647     172.533
  H     -100.334     621.483     172.264
  H     -101.721     622.358     172.868

 6  7  8  9  10  11  12  13  14  15  16  26  30  31  32  33  35 0
 6-311+G(2d,p)
 ****
 37  38 0
 6-311+G(2d,p)
 ****
 1  2  3  4  5  17  18  19  20  21  22  23  24  25 0
 3-21G
 ****
 27  28  29  34  36  39  40  41  42  43  44  45  46 0
 3-21G
 ****


