%nproc=1
%NoSave
%Mem=1900MB
#P OB98/GEN NMR

erre ene a

0 1
  C     -513.092     646.997     364.272
  O     -512.520     647.450     363.045
  P     -512.069     646.381     361.941
  C     -514.319     645.645     360.898
  O     -513.122     646.394     360.732
  C     -514.517     644.696     359.706
  O     -515.634     643.803     359.925
  C     -514.843     645.426     358.416
  O     -513.810     646.195     357.837
  C     -515.453     644.328     357.561
  O     -514.445     643.538     356.925
  C     -516.196     643.476     358.630
  N     -517.645     643.710     358.613
  C     -518.374     642.927     357.720
  O     -517.856     642.114     356.954
  N     -519.726     643.132     357.720
  C     -520.407     644.044     358.477
  O     -521.613     644.200     358.414
  C     -519.581     644.857     359.378
  C     -518.256     644.659     359.403
  O     -511.706     645.033     362.455
  O     -510.782     647.084     361.277
  H     -513.859     643.201     357.625
  H     -510.107     646.387     361.134
  H     -520.273     642.569     357.085
  H     -520.080     645.596     359.992
  H     -517.628     645.250     360.071
  H     -516.022     642.418     358.461
  H     -516.096     644.725     356.776
  H     -515.657     646.142     358.637
  H     -513.619     644.085     359.601
  H     -515.174     646.319     360.983
  H     -514.266     645.091     361.846
  P     -513.969     647.748     357.456
  C     -513.421     649.477     359.316
  O     -512.922     648.595     358.332
  O     -515.358     648.289     357.343
  O     -513.283     647.785     356.000
  H     -513.738     648.464     355.464
  H     -512.582     649.973     359.800
  H     -513.980     648.919     360.078
  H     -514.076     650.235     358.858
  H     -513.332     647.840     364.886
  H     -512.390     646.372     364.783
  H     -513.982     646.440     364.066

 3  4  5  6  7  8  9  10  11  12  13  23  28  29  30  31  32 0
 6-311+G(2d,p)
 ****
 33  34 0
 6-311+G(2d,p)
 ****
 1  2  14  15  16  17  18  19  20  21  22  24  25  26  27 0
 3-21G
 ****
 35  36  37  38  39  40  41  42  43  44  45 0
 3-21G
 ****


