%nproc=1
%NoSave
%Mem=1900MB
#P OB98/GEN NMR

erre ene a

0 1
  C      -75.516    -210.465     257.156
  O      -75.835    -210.306     258.525
  P      -76.588    -208.988     259.040
  C      -74.604    -208.494     260.613
  O      -75.424    -208.007     259.553
  C      -73.495    -207.496     260.944
  O      -72.589    -207.358     259.833
  C      -73.994    -206.092     261.252
  O      -74.532    -206.028     262.562
  C      -72.723    -205.278     261.048
  O      -71.887    -205.317     262.214
  C      -72.052    -206.017     259.870
  N      -72.237    -205.326     258.600
  C      -71.680    -204.046     258.515
  O      -71.105    -203.550     259.485
  N      -71.832    -203.337     257.349
  C      -72.501    -203.854     256.365
  N      -72.627    -203.100     255.239
  C      -73.132    -205.188     256.427
  C      -72.963    -205.860     257.562
  O      -77.699    -209.226     260.005
  O      -77.067    -208.289     257.679
  H      -71.174    -204.665     262.059
  H      -77.834    -208.767     257.280
  H      -73.690    -205.571     255.586
  H      -73.394    -206.847     257.694
  H      -70.975    -206.123     260.047
  H      -72.940    -204.225     260.842
  H      -74.744    -205.794     260.510
  H      -72.927    -207.891     261.800
  H      -72.206    -202.178     255.250
  H      -74.157    -209.439     260.294
  H      -73.158    -203.389     254.433
  H      -75.228    -208.689     261.491
  P      -75.544    -204.852     262.950
  C      -73.900    -203.804     264.621
  O      -74.672    -203.604     263.455
  O      -76.670    -205.244     263.847
  O      -76.100    -204.351     261.533
  H      -77.064    -204.223     261.596
  H      -73.124    -203.036     264.667
  H      -73.424    -204.790     264.612
  H      -74.541    -203.718     265.501
  H      -75.020    -211.402     257.012
  H      -74.872    -209.669     256.845
  H      -76.415    -210.445     256.576

 3  4  5  6  7  8  9  10  11  12  13  23  27  28  29  30  32 0
 6-311+G(2d,p)
 ****
 34  35 0
 6-311+G(2d,p)
 ****
 1  2  14  15  16  17  18  19  20  21  22  24  25  26 0
 3-21G
 ****
 31  33  36  37  38  39  40  41  42  43  44  45  46 0
 3-21G
 ****


