%nproc=1
%NoSave
%Mem=1900MB
#P OB98/GEN NMR

erre ene a

0 1
  C       45.770     233.756      -7.736
  O       46.879     233.398      -6.933
  H       45.982     234.713      -8.221
  H       44.876     233.864      -7.117
  H       45.603     232.998      -8.508
  P       46.753     232.024      -6.112
  C       46.597     233.265      -3.837
  O       45.968     232.385      -4.758
  C       45.604     234.303      -3.325
  O       44.953     234.976      -4.428
  C       44.494     233.733      -2.447
  O       44.931     233.572      -1.108
  C       43.423     234.805      -2.590
  O       43.680     235.929      -1.723
  C       43.567     235.210      -4.066
  N       39.598     235.622      -7.161
  C       40.272     236.589      -6.444
  N       39.783     237.847      -6.523
  N       41.325     236.347      -5.708
  C       41.679     235.039      -5.698
  C       41.100     233.990      -6.378
  C       39.954     234.281      -7.214
  O       39.354     233.480      -7.925
  N       41.759     232.813      -6.127
  C       42.706     233.141      -5.270
  N       42.688     234.479      -4.965
  O       48.249     231.754      -5.605
  O       46.215     230.865      -6.882
  H       43.569     235.651      -0.797
  H       48.393     230.790      -5.540
  H       38.804     235.876      -7.724
  H       43.422     232.453      -4.843
  H       43.362     236.276      -4.223
  H       42.434     234.427      -2.324
  H       38.823     238.027      -6.785
  H       44.119     232.787      -2.859
  H       40.259     238.557      -5.982
  H       46.175     235.064      -2.775
  H       47.423     233.777      -4.343
  H       46.998     232.684      -3.000
  P       44.966     232.083      -0.509
  C       43.107     232.734       1.192
  O       43.536     231.837       0.174
  O       45.954     232.211       0.745
  O       45.410     231.033      -1.475
  H       46.264     231.325       1.016
  H       42.141     232.438       1.544
  H       43.053     233.726       0.794
  H       43.805     232.713       2.003

 6  7  8  9  10  11  12  13  14  15  26  29  33  34 0
 6-311+G(2d,p)
 ****
 36  38  39  40  41 0
 6-311+G(2d,p)
 ****
 1  2  3  4  5  16  17  18  19  20  21  22  23  24  25 0
 3-21G
 ****
 27  28  30  31  32  35  37  42  43  44  45  46  47 0
 3-21G
 ****
 48  49 0
 3-21G
 ****


