%nproc=1
%NoSave
%Mem=1900MB
#P OB98/GEN NMR

erre ene a

0 1
  C      262.509     328.251     -71.251
  O      263.096     329.059     -70.262
  P      262.286     329.452     -68.934
  C      261.670     331.807     -69.772
  O      261.181     330.533     -69.386
  C      260.526     332.816     -69.825
  O      259.486     332.377     -70.735
  C      259.801     333.007     -68.502
  O      260.530     333.596     -67.442
  C      258.538     333.719     -68.950
  O      258.763     335.113     -69.143
  C      258.256     333.018     -70.303
  N      257.149     332.067     -70.211
  C      255.878     332.623     -70.095
  O      255.662     333.832     -70.071
  N      254.847     331.727     -69.973
  C      254.963     330.369     -69.916
  O      254.001     329.627     -69.759
  C      256.329     329.842     -70.024
  C      257.350     330.700     -70.166
  O      263.120     329.872     -67.777
  O      261.391     328.152     -68.655
  H      257.887     335.528     -69.306
  H      260.777     327.912     -69.372
  H      253.920     332.108     -69.877
  H      256.460     328.769     -69.996
  H      258.370     330.332     -70.246
  H      258.003     333.762     -71.071
  H      257.731     333.620     -68.213
  H      259.503     332.015     -68.127
  H      260.916     333.760     -70.217
  H      262.117     331.729     -70.768
  H      262.451     332.130     -69.076
  P      260.644     332.953     -65.980
  C      258.465     333.887     -64.922
  O      259.163     332.750     -65.399
  O      261.665     333.538     -65.064
  O      261.066     331.436     -66.331
  H      261.620     331.090     -65.607
  H      257.502     333.561     -64.532
  H      258.290     334.596     -65.741
  H      259.027     334.372     -64.125
  H      263.204     328.104     -72.051
  H      261.629     328.730     -71.627
  H      262.247     327.304     -70.828

 3  4  5  6  7  8  9  10  11  12  13  23  28  29  30  31  32 0
 6-311+G(2d,p)
 ****
 33  34 0
 6-311+G(2d,p)
 ****
 1  2  14  15  16  17  18  19  20  21  22  24  25  26  27 0
 3-21G
 ****
 35  36  37  38  39  40  41  42  43  44  45 0
 3-21G
 ****


