%nproc=1
%NoSave
%Mem=1900MB
#P OB98/GEN NMR

erre ene a

0 1
  C      427.251      98.012     212.442
  O      428.175      97.373     211.585
  H      427.735      98.238     213.396
  H      426.927      98.952     211.986
  H      426.369      97.382     212.603
  P      428.546      95.844     211.904
  C      426.383      94.728     210.981
  O      427.782      94.950     210.808
  C      425.667      94.670     209.634
  O      425.577      96.026     209.101
  C      426.383      93.809     208.577
  O      425.388      93.113     207.817
  C      427.060      94.837     207.677
  O      427.287      94.357     206.359
  C      426.069      96.000     207.749
  N      428.575      98.356     203.992
  C      427.832      97.229     204.017
  N      427.144      96.703     205.056
  C      427.239      97.491     206.141
  C      427.970      98.665     206.268
  C      428.673      99.083     205.134
  N      429.508     100.192     205.130
  N      427.862      99.152     207.569
  C      427.111      98.274     208.203
  N      426.718      97.244     207.386
  O      427.732      95.560     213.256
  O      430.005      95.554     212.059
  H      427.804      93.532     206.401
  H      428.270      95.826     214.020
  H      427.776      96.686     203.078
  H      426.849      98.312     209.255
  H      425.204      95.863     207.075
  H      428.026      95.117     208.117
  H      427.099      93.088     208.992
  H      424.643      94.324     209.790
  H      425.968      95.552     211.577
  H      430.053     100.362     204.298
  H      429.671     100.689     205.997
  H      426.243      93.788     211.532
  P      425.706      91.603     207.371
  C      423.312      90.553     207.370
  O      424.420      91.015     206.610
  O      425.703      90.810     208.768
  O      427.007      91.448     206.640
  H      426.348      90.078     208.731
  H      422.549      90.198     206.709
  H      422.925      91.356     207.962
  H      423.627      89.757     208.012

 6  7  8  9  10  11  12  13  14  15  25  28  32  33  34  35 0
 6-311+G(2d,p)
 ****
 36  39  40 0
 6-311+G(2d,p)
 ****
 1  2  3  4  5  16  17  18  19  20  21  22  23  24 0
 3-21G
 ****
 26  27  29  30  31  37  38  41  42  43  44  45  46  47 0
 3-21G
 ****
 48 0
 3-21G
 ****


