%nproc=1
%NoSave
%Mem=1900MB
#P OB98/GEN NMR

erre ene a

0 1
  C      225.598     383.396    -132.059
  O      225.347     383.929    -133.345
  H      225.596     382.305    -132.125
  H      224.811     383.709    -131.366
  H      226.575     383.727    -131.693
  P      225.485     385.521    -133.508
  C      223.868     387.530    -133.002
  O      224.091     386.129    -132.995
  C      222.376     387.837    -133.123
  O      221.907     387.358    -134.410
  C      221.522     387.175    -132.042
  O      220.448     388.062    -131.708
  C      220.961     385.947    -132.736
  O      219.763     385.480    -132.121
  C      220.796     386.466    -134.173
  N      220.754     385.385    -135.155
  C      219.704     385.412    -136.075
  O      218.859     386.308    -136.029
  N      219.605     384.405    -137.002
  C      220.444     383.417    -136.972
  N      220.276     382.436    -137.898
  C      221.543     383.323    -135.988
  C      221.646     384.334    -135.128
  O      225.417     385.696    -135.096
  O      226.705     386.102    -132.875
  H      219.386     384.762    -132.675
  H      224.718     385.163    -135.515
  H      222.215     382.475    -135.996
  H      222.428     384.352    -134.376
  H      219.871     387.052    -134.267
  H      221.692     385.132    -132.708
  H      222.092     386.930    -131.141
  H      222.241     388.924    -133.123
  H      219.497     382.531    -138.540
  H      224.404     387.996    -133.836
  H      220.836     381.597    -137.932
  H      224.268     387.942    -132.068
  P      220.600     389.046    -130.453
  C      221.326     388.849    -127.980
  O      220.799     388.180    -129.119
  O      219.585     390.135    -130.360
  O      222.066     389.674    -130.675
  H      222.018     390.621    -130.449
  H      221.406     388.159    -127.166
  H      220.674     389.651    -127.704
  H      222.294     389.240    -128.213

 6  7  8  9  10  11  12  13  14  15  16  26  30  31  32  33  35 0
 6-311+G(2d,p)
 ****
 37  38 0
 6-311+G(2d,p)
 ****
 1  2  3  4  5  17  18  19  20  21  22  23  24  25 0
 3-21G
 ****
 27  28  29  34  36  39  40  41  42  43  44  45  46 0
 3-21G
 ****


