%nproc=1
%NoSave
%Mem=1900MB
#P OB98/GEN NMR

erre ene a

0 1
  C     -379.100    -366.689     792.822
  O     -379.611    -365.762     793.753
  H     -378.078    -366.944     793.109
  H     -379.090    -366.260     791.814
  H     -379.704    -367.605     792.826
  P     -381.065    -365.135     793.494
  C     -382.980    -364.397     795.069
  O     -381.578    -364.562     794.901
  C     -383.356    -364.406     796.559
  O     -383.358    -365.787     797.034
  C     -382.378    -363.620     797.450
  O     -383.124    -363.110     798.566
  C     -381.428    -364.723     797.897
  O     -380.632    -364.306     798.980
  C     -382.421    -365.861     798.134
  N     -381.766    -367.163     798.204
  C     -381.554    -367.678     799.487
  O     -381.892    -367.031     800.476
  N     -380.928    -368.891     799.616
  C     -380.496    -369.506     798.560
  N     -379.869    -370.698     798.759
  C     -380.646    -368.967     797.184
  C     -381.289    -367.808     797.077
  O     -382.037    -366.025     792.789
  O     -380.771    -363.810     792.646
  H     -381.154    -364.285     799.813
  H     -381.007    -363.951     791.712
  H     -380.252    -369.516     796.342
  H     -381.447    -367.336     796.122
  H     -382.982    -365.702     799.056
  H     -380.737    -364.980     797.086
  H     -381.886    -362.802     796.922
  H     -384.378    -364.032     796.666
  H     -379.781    -371.026     799.711
  H     -383.467    -365.229     794.558
  H     -379.466    -371.263     798.012
  H     -383.313    -363.463     794.615
  P     -383.586    -361.583     798.680
  C     -385.855    -360.855     799.685
  O     -384.565    -361.418     799.938
  O     -384.132    -361.016     797.406
  O     -382.268    -360.789     799.125
  H     -382.305    -359.878     798.766
  H     -386.406    -360.800     800.601
  H     -386.383    -361.472     798.988
  H     -385.742    -359.872     799.277

 6  7  8  9  10  11  12  13  14  15  16  26  30  31  32  33  35 0
 6-311+G(2d,p)
 ****
 37  38 0
 6-311+G(2d,p)
 ****
 1  2  3  4  5  17  18  19  20  21  22  23  24  25 0
 3-21G
 ****
 27  28  29  34  36  39  40  41  42  43  44  45  46 0
 3-21G
 ****


