%nproc=1
%NoSave
%Mem=1900MB
#P OB98/GEN NMR

erre ene a

0 1
  C     -553.658    -543.162     320.344
  O     -553.174    -541.848     320.115
  P     -554.168    -540.812     319.398
  C     -553.740    -542.079     317.156
  O     -554.696    -541.549     318.080
  C     -554.223    -541.884     315.721
  O     -555.379    -542.707     315.475
  C     -554.656    -540.468     315.403
  O     -553.530    -539.631     315.195
  C     -555.503    -540.682     314.152
  O     -554.681    -540.684     312.967
  C     -556.118    -542.074     314.400
  N     -557.553    -542.022     314.699
  C     -558.393    -542.554     313.725
  O     -557.921    -543.029     312.682
  N     -559.748    -542.504     313.937
  C     -560.214    -541.968     315.015
  N     -561.575    -541.950     315.186
  C     -559.353    -541.373     316.063
  C     -558.037    -541.423     315.837
  O     -553.167    -539.696     318.824
  O     -555.217    -540.230     320.286
  H     -553.969    -541.333     313.142
  H     -553.625    -538.836     318.739
  H     -559.798    -540.932     316.951
  H     -557.335    -541.015     316.558
  H     -555.987    -542.721     313.516
  H     -556.252    -539.896     314.024
  H     -555.283    -540.056     316.205
  H     -553.415    -542.204     315.050
  H     -562.139    -542.360     314.448
  H     -553.613    -543.149     317.352
  H     -562.025    -541.584     316.007
  H     -552.781    -541.576     317.318
  P     -553.585    -538.138     315.779
  C     -554.451    -537.013     313.638
  O     -554.768    -537.424     314.956
  O     -552.273    -537.479     315.135
  O     -553.630    -537.984     317.260
  H     -552.143    -536.579     315.503
  H     -555.370    -536.687     313.149
  H     -554.026    -537.849     313.065
  H     -553.743    -536.182     313.665
  H     -552.899    -543.743     320.825
  H     -553.916    -543.615     319.410
  H     -554.524    -543.119     320.970

 3  4  5  6  7  8  9  10  11  12  13  21  23  27  28  29  30  32 0
 6-311+G(2d,p)
 ****
 34  35 0
 6-311+G(2d,p)
 ****
 1  2  14  15  16  17  18  19  20  22  24  25  26 0
 3-21G
 ****
 31  33  36  37  38  39  40  41  42  43  44  45  46 0
 3-21G
 ****


