%nproc=1
%NoSave
%Mem=1900MB
#P OB98/GEN NMR

erre ene a

0 1
  C      -41.814      71.555     -57.360
  O      -42.830      70.944     -58.125
  H      -40.896      70.971     -57.470
  H      -42.103      71.561     -56.305
  H      -41.621      72.578     -57.694
  P      -44.128      71.800     -58.504
  C      -45.290      71.266     -56.262
  O      -44.814      72.284     -57.135
  C      -46.031      71.847     -55.057
  O      -45.119      72.598     -54.226
  C      -47.133      72.826     -55.469
  O      -48.373      72.234     -55.809
  C      -47.263      73.691     -54.218
  O      -48.152      73.082     -53.266
  C      -45.833      73.720     -53.674
  N      -44.822      78.545     -52.329
  C      -45.677      77.637     -51.734
  N      -46.398      78.093     -50.686
  N      -45.823      76.406     -52.149
  C      -45.112      76.120     -53.266
  C      -44.242      76.940     -53.950
  C      -44.046      78.286     -53.450
  O      -43.306      79.131     -53.944
  N      -43.697      76.300     -55.038
  C      -44.294      75.125     -55.053
  N      -45.141      74.958     -53.982
  O      -45.164      70.696     -59.037
  O      -43.912      72.875     -59.528
  H      -47.780      72.218     -53.007
  H      -45.794      71.105     -59.658
  H      -44.729      79.471     -51.951
  H      -44.129      74.351     -55.796
  H      -45.816      73.603     -52.583
  H      -47.676      74.677     -54.450
  H      -46.406      79.062     -50.406
  H      -46.790      73.462     -56.292
  H      -47.216      77.553     -50.397
  H      -46.425      71.026     -54.445
  H      -44.416      70.704     -55.927
  H      -45.934      70.570     -56.808
  P      -49.317      72.923     -56.903
  C      -50.691      74.173     -55.079
  O      -49.897      74.265     -56.243
  O      -50.580      71.942     -56.950
  O      -48.698      73.097     -58.248
  H      -50.491      71.312     -57.689
  H      -50.992      75.153     -54.774
  H      -50.124      73.715     -54.296
  H      -51.558      73.581     -55.285

 6  7  8  9  10  11  12  13  14  15  26  29  33  34 0
 6-311+G(2d,p)
 ****
 36  38  39  40  41 0
 6-311+G(2d,p)
 ****
 1  2  3  4  5  16  17  18  19  20  21  22  23  24  25 0
 3-21G
 ****
 27  28  30  31  32  35  37  42  43  44  45  46  47 0
 3-21G
 ****
 48  49 0
 3-21G
 ****


