%nproc=1
%NoSave
%Mem=1900MB
#P OB98/GEN NMR

erre ene a

0 1
  C     -175.078    -462.323    -581.948
  O     -174.251    -461.209    -582.215
  P     -174.393    -460.382    -583.580
  C     -175.482    -458.263    -582.634
  O     -175.666    -459.414    -583.446
  C     -175.849    -456.991    -583.390
  O     -175.027    -456.886    -584.583
  C     -177.318    -456.914    -583.824
  O     -177.738    -455.552    -583.672
  C     -177.266    -457.296    -585.289
  O     -178.390    -456.825    -586.011
  C     -175.919    -456.677    -585.693
  N     -175.388    -457.256    -586.915
  C     -175.804    -456.688    -588.118
  O     -176.690    -455.826    -588.125
  N     -175.226    -457.120    -589.285
  C     -174.444    -458.157    -589.264
  N     -173.841    -458.505    -590.428
  C     -174.177    -458.935    -588.042
  C     -174.640    -458.411    -586.907
  O     -174.367    -461.208    -584.820
  O     -173.161    -459.362    -583.543
  H     -172.649    -459.447    -584.378
  H     -178.565    -455.892    -585.757
  H     -173.623    -459.860    -588.093
  H     -174.473    -458.897    -585.952
  H     -176.023    -455.591    -585.833
  H     -177.231    -458.385    -585.383
  H     -177.969    -457.558    -583.226
  H     -175.600    -456.129    -582.752
  H     -174.012    -457.928    -591.239
  H     -174.433    -458.218    -582.339
  H     -172.992    -459.079    -590.450
  H     -176.082    -458.354    -581.717
  P     -179.240    -455.267    -583.184
  C     -178.710    -454.893    -580.670
  O     -179.347    -455.691    -581.642
  O     -180.045    -456.450    -583.915
  O     -179.826    -453.950    -583.565
  H     -180.975    -456.177    -584.035
  H     -178.830    -455.367    -579.696
  H     -179.161    -453.902    -580.633
  H     -177.642    -454.812    -580.890
  H     -174.827    -462.733    -580.992
  H     -174.931    -463.066    -582.704
  H     -176.102    -462.014    -581.945

 3  4  5  6  7  8  9  10  11  12  13  24  27  28  29  30  32 0
 6-311+G(2d,p)
 ****
 34  35 0
 6-311+G(2d,p)
 ****
 1  2  14  15  16  17  18  19  20  21  22  23  25  26 0
 3-21G
 ****
 31  33  36  37  38  39  40  41  42  43  44  45  46 0
 3-21G
 ****


