%nproc=1
%NoSave
%Mem=1900MB
#P OB98/GEN NMR

erre ene a

0 1
  C      684.849      37.109     369.360
  O      684.311      38.337     369.806
  H      685.775      37.310     368.814
  H      684.148      36.608     368.686
  H      685.078      36.459     370.209
  P      682.943      38.319     370.638
  C      682.029      39.765     372.591
  O      683.084      39.554     371.661
  C      682.375      40.913     373.532
  O      683.582      40.636     374.276
  C      682.645      42.254     372.842
  O      681.482      42.887     372.353
  C      683.286      43.011     373.995
  O      682.269      43.421     374.925
  C      684.197      41.917     374.601
  N      685.570      41.975     374.089
  C      686.503      42.649     374.885
  O      686.167      43.172     375.951
  N      687.800      42.755     374.438
  C      688.125      42.248     373.289
  N      689.423      42.383     372.896
  C      687.170      41.548     372.415
  C      685.924      41.443     372.867
  O      682.570      37.013     371.261
  O      681.843      38.875     369.615
  H      681.906      42.606     375.322
  H      680.968      38.874     370.080
  H      687.488      41.165     371.452
  H      685.163      40.944     372.281
  H      684.220      41.995     375.693
  H      683.811      43.909     373.671
  H      683.395      42.133     372.044
  H      681.560      41.001     374.261
  H      690.055      42.872     373.519
  H      681.872      38.836     373.142
  H      689.744      42.085     371.983
  H      681.107      40.021     372.055
  P      681.698      44.212     371.461
  C      680.229      45.520     369.739
  O      680.356      44.400     370.605
  O      682.789      43.752     370.387
  O      682.114      45.428     372.227
  H      683.681      44.046     370.649
  H      679.278      45.487     369.251
  H      681.008      45.494     369.006
  H      680.306      46.422     370.309

 6  7  8  9  10  11  12  13  14  15  16  26  30  31  32  33  35 0
 6-311+G(2d,p)
 ****
 37  38 0
 6-311+G(2d,p)
 ****
 1  2  3  4  5  17  18  19  20  21  22  23  24  25 0
 3-21G
 ****
 27  28  29  34  36  39  40  41  42  43  44  45  46 0
 3-21G
 ****


