%nproc=1
%NoSave
%Mem=1900MB
#P OB98/GEN NMR

erre ene a

0 1
  C     -105.346      21.536     356.680
  O     -106.564      22.163     356.343
  H     -104.634      22.303     356.994
  H     -104.936      21.011     355.815
  H     -105.493      20.837     357.508
  P     -107.770      21.264     355.786
  C     -109.387      21.863     357.706
  O     -109.132      21.935     356.308
  C     -110.630      22.690     358.058
  O     -110.217      24.076     358.184
  C     -111.720      22.605     356.982
  O     -112.992      22.238     357.505
  C     -111.603      23.948     356.263
  O     -112.791      24.381     355.638
  C     -111.072      24.882     357.356
  N     -110.348      26.044     356.842
  C     -110.869      27.301     357.124
  O     -111.886      27.511     357.788
  N     -110.166      28.363     356.617
  C     -109.031      28.289     355.865
  O     -108.443      29.276     355.437
  C     -108.546      26.930     355.572
  C     -109.214      25.888     356.065
  O     -107.655      19.801     356.049
  O     -107.793      21.578     354.216
  H     -113.016      23.717     354.951
  H     -107.418      20.821     353.726
  H     -110.526      29.277     356.828
  H     -107.655      26.836     354.964
  H     -108.883      24.872     355.873
  H     -111.893      25.252     357.976
  H     -110.844      23.854     355.478
  H     -111.500      21.805     356.266
  H     -111.001      22.366     359.039
  H     -108.509      22.251     358.230
  H     -109.545      20.817     357.997
  P     -114.145      21.504     356.682
  C     -114.996      20.184     358.787
  O     -115.292      21.048     357.695
  O     -113.693      20.495     355.678
  O     -114.854      22.707     355.865
  H     -115.170      22.318     355.022
  H     -115.889      19.996     359.345
  H     -114.270      20.647     359.422
  H     -114.607      19.259     358.415

 6  7  8  9  10  11  12  13  14  15  16  26  31  32  33  34  35 0
 6-311+G(2d,p)
 ****
 36  37 0
 6-311+G(2d,p)
 ****
 1  2  3  4  5  17  18  19  20  21  22  23  24  25 0
 3-21G
 ****
 27  28  29  30  38  39  40  41  42  43  44  45 0
 3-21G
 ****


