%nproc=1
%NoSave
%Mem=1900MB
#P OB98/GEN NMR

erre ene a

0 1
  C       95.367    -245.589     -76.034
  O       95.960    -244.747     -75.071
  H       94.311    -245.318     -76.130
  H       95.428    -246.637     -75.726
  H       95.852    -245.458     -77.007
  P       97.464    -245.048     -74.588
  C       96.442    -246.780     -72.993
  O       97.416    -246.554     -74.004
  C       97.002    -247.644     -71.859
  O       97.078    -249.029     -72.294
  C       98.403    -247.225     -71.393
  O       98.435    -247.180     -69.963
  C       99.302    -248.342     -71.906
  O      100.508    -248.454     -71.154
  C       98.347    -249.543     -71.842
  N       98.796    -250.672     -72.651
  C       98.475    -251.951     -72.179
  O       97.879    -252.081     -71.108
  N       98.871    -253.044     -72.904
  C       99.574    -252.884     -73.981
  N       99.945    -254.012     -74.651
  C       99.978    -251.557     -74.496
  C       99.549    -250.503     -73.792
  O       98.039    -244.032     -73.657
  O       98.296    -245.219     -75.947
  H      100.280    -248.762     -70.247
  H       99.259    -245.092     -75.760
  H      100.572    -251.472     -75.393
  H       99.790    -249.489     -74.099
  H       98.227    -249.889     -70.805
  H       99.574    -248.140     -72.952
  H       98.710    -246.256     -71.776
  H       96.280    -247.626     -71.027
  H       99.649    -254.903     -74.266
  H       95.570    -247.265     -73.449
  H      100.498    -254.009     -75.497
  H       96.140    -245.809     -72.584
  P       98.522    -245.715     -69.304
  C      100.926    -245.438     -70.239
  O       99.626    -244.875     -70.114
  O       99.212    -245.994     -67.887
  O       97.194    -245.044     -69.154
  H       98.538    -246.006     -67.181
  H      101.550    -244.773     -70.798
  H      100.860    -246.378     -70.747
  H      101.345    -245.587     -69.266

 6  7  8  9  10  11  12  13  14  15  16  26  30  31  32  33  35 0
 6-311+G(2d,p)
 ****
 37  38 0
 6-311+G(2d,p)
 ****
 1  2  3  4  5  17  18  19  20  21  22  23  24  25 0
 3-21G
 ****
 27  28  29  34  36  39  40  41  42  43  44  45  46 0
 3-21G
 ****


