%nproc=1
%NoSave
%Mem=1900MB
#P OB98/GEN NMR

erre ene a

0 1
  C      -48.605     320.740     991.216
  O      -48.367     321.889     992.006
  H      -48.247     320.897     990.201
  H      -48.060     319.893     991.646
  H      -49.674     320.500     991.201
  P      -49.044     323.257     991.516
  C      -50.435     323.606     993.683
  O      -49.402     324.098     992.844
  C      -49.901     323.385     995.093
  O      -49.241     322.091     995.148
  C      -48.893     324.454     995.581
  O      -49.362     325.069     996.777
  C      -47.627     323.656     995.900
  O      -46.973     324.110     997.082
  C      -48.136     322.226     996.047
  N      -45.142     318.620     998.047
  C      -46.316     319.128     998.474
  N      -47.120     320.017     997.841
  C      -46.605     320.350     996.635
  C      -45.434     319.887     996.058
  C      -44.666     318.987     996.826
  N      -43.442     318.492     996.430
  N      -45.241     320.460     994.809
  C      -46.256     321.277     994.660
  N      -47.096     321.269     995.738
  O      -50.482     322.781     990.973
  O      -48.283     324.005     990.472
  H      -46.181     323.539     997.204
  H      -50.649     323.180     990.101
  H      -46.659     318.803     999.445
  H      -46.397     321.943     993.814
  H      -48.499     322.022     997.067
  H      -46.923     323.746     995.060
  H      -48.697     325.216     994.810
  H      -50.755     323.337     995.792
  H      -50.804     322.648     993.288
  H      -42.915     317.963     997.089
  H      -43.038     318.868     995.563
  H      -51.262     324.320     993.691
  P      -48.604     326.431     997.231
  C      -50.876     327.670     997.610
  O      -49.641     327.246     998.172
  O      -48.582     327.292     995.883
  O      -47.240     326.215     997.780
  H      -47.830     327.908     995.889
  H      -51.445     328.190     998.352
  H      -51.426     326.816     997.272
  H      -50.686     328.322     996.783

 6  7  8  9  10  11  12  13  14  15  25  28  32  33  34  35 0
 6-311+G(2d,p)
 ****
 36  39  40 0
 6-311+G(2d,p)
 ****
 1  2  3  4  5  16  17  18  19  20  21  22  23  24 0
 3-21G
 ****
 26  27  29  30  31  37  38  41  42  43  44  45  46  47  48 0
 3-21G
 ****


