%nproc=1
%NoSave
%Mem=1900MB
#P OB98/GEN NMR

erre ene a

0 1
  C       63.461      71.151    -168.667
  O       64.403      72.102    -168.172
  P       65.967      71.827    -168.392
  C       66.419      72.795    -170.738
  O       66.552      72.987    -169.332
  C       67.677      73.259    -171.470
  O       67.669      72.855    -172.854
  C       67.838      74.770    -171.492
  O       68.248      75.256    -170.226
  C       68.847      74.949    -172.615
  O       70.187      74.735    -172.143
  C       68.446      73.823    -173.594
  N       67.725      74.305    -174.763
  C       68.426      75.181    -175.598
  O       69.569      75.533    -175.310
  N       67.805      75.646    -176.732
  C       66.590      75.277    -176.999
  N       66.027      75.766    -178.137
  C       65.813      74.366    -176.138
  C       66.433      73.928    -175.043
  O       66.327      70.436    -168.798
  O       66.595      72.193    -166.960
  H       70.165      73.895    -171.642
  H       67.393      71.644    -166.817
  H       64.806      74.082    -176.408
  H       65.934      73.258    -174.352
  H       69.340      73.293    -173.949
  H       68.811      75.958    -173.038
  H       66.884      75.239    -171.774
  H       68.549      72.801    -170.979
  H       66.577      76.399    -178.704
  H       65.549      73.348    -171.100
  H       65.107      75.499    -178.458
  H       66.219      71.735    -170.930
  P       67.386      76.435    -169.564
  C       65.308      75.451    -168.365
  O       66.663      75.841    -168.264
  O       66.180      76.623    -170.604
  O       68.128      77.715    -169.359
  H       65.918      77.561    -170.633
  H       65.069      74.796    -167.523
  H       65.116      74.909    -169.295
  H       64.667      76.335    -168.316
  H       62.469      71.481    -168.440
  H       63.636      70.202    -168.205
  H       63.572      71.057    -169.727

 3  4  5  6  7  8  9  10  11  12  13  23  27  28  29  30  32 0
 6-311+G(2d,p)
 ****
 34  35 0
 6-311+G(2d,p)
 ****
 1  2  14  15  16  17  18  19  20  21  22  24  25  26 0
 3-21G
 ****
 31  33  36  37  38  39  40  41  42  43  44  45  46 0
 3-21G
 ****


