%nproc=1
%NoSave
%Mem=1900MB
#P OB98/GEN NMR

erre ene a

0 1
  C      158.516    -243.645      18.899
  O      158.426    -243.931      20.285
  P      157.365    -245.044      20.750
  C      154.765    -245.035      20.709
  O      155.959    -244.290      20.907
  C      153.545    -244.146      20.935
  O      153.513    -243.066      19.980
  C      152.211    -244.863      20.774
  O      151.848    -245.597      21.932
  C      151.270    -243.688      20.573
  O      150.948    -243.092      21.845
  C      152.127    -242.729      19.736
  N      148.815    -241.560      16.093
  C      148.871    -241.135      17.406
  N      147.867    -240.330      17.820
  N      149.823    -241.465      18.237
  C      150.755    -242.280      17.685
  C      150.810    -242.765      16.399
  C      149.741    -242.403      15.494
  O      149.608    -242.789      14.337
  N      151.911    -243.557      16.209
  C      152.527    -243.551      17.374
  N      151.843    -242.827      18.316
  O      157.789    -245.348      22.263
  O      157.347    -246.276      19.911
  H      151.773    -242.691      22.183
  H      157.396    -246.192      22.556
  H      148.055    -241.282      15.494
  H      153.454    -244.067      17.586
  H      151.986    -241.687      20.037
  H      150.322    -243.976      20.110
  H      147.071    -240.092      17.247
  H      152.205    -245.492      19.875
  H      147.848    -240.055      18.794
  H      153.627    -243.708      21.940
  H      154.743    -245.872      21.409
  H      154.756    -245.437      19.691
  P      150.815    -246.809      21.724
  C      148.444    -246.907      20.665
  O      149.432    -246.121      21.304
  O      150.555    -247.319      23.218
  O      151.310    -247.897      20.831
  H      150.298    -248.261      23.215
  H      147.493    -246.368      20.695
  H      148.316    -247.867      21.174
  H      148.721    -247.076      19.623
  H      159.257    -242.891      18.738
  H      157.569    -243.296      18.545
  H      158.790    -244.533      18.369

 3  4  5  6  7  8  9  10  11  12  23  26  30  31 0
 6-311+G(2d,p)
 ****
 33  35  36  37  38 0
 6-311+G(2d,p)
 ****
 1  2  13  14  15  16  17  18  19  20  21  22  24  25 0
 3-21G
 ****
 27  28  29  32  34  39  40  41  42  43  44  45  46  47  48  49 0
 3-21G
 ****


