%nproc=1
%NoSave
%Mem=1900MB
#P OB98/GEN NMR

erre ene a

0 1
  C      753.798    -284.666     341.415
  O      752.531    -284.055     341.256
  H      754.036    -284.707     342.481
  H      754.564    -284.081     340.901
  H      753.779    -285.684     341.019
  P      751.988    -283.915     339.754
  C      749.620    -283.897     340.842
  O      750.493    -283.340     339.874
  C      748.253    -283.202     340.795
  O      748.451    -281.770     341.028
  C      747.529    -283.334     339.443
  O      746.121    -283.278     339.683
  C      747.978    -282.068     338.728
  O      747.182    -281.820     337.590
  C      747.885    -281.081     339.889
  N      747.365    -276.052     339.105
  C      746.462    -277.017     339.376
  N      746.678    -278.334     339.583
  C      747.988    -278.614     339.513
  C      749.030    -277.738     339.255
  C      748.680    -276.394     339.040
  N      749.594    -275.417     338.757
  N      750.248    -278.408     339.259
  C      749.944    -279.661     339.514
  N      748.591    -279.839     339.667
  O      751.779    -285.435     339.293
  O      752.875    -283.166     338.819
  H      747.322    -280.908     337.262
  H      752.566    -285.746     338.813
  H      745.426    -276.686     339.428
  H      750.651    -280.482     339.594
  H      746.849    -280.833     340.138
  H      749.008    -282.157     338.376
  H      747.777    -284.257     338.911
  H      747.634    -283.567     341.621
  H      750.066    -283.772     341.832
  H      749.488    -284.969     340.642
  H      749.256    -274.475     338.597
  H      750.577    -275.657     338.688
  P      745.418    -284.452     340.528
  C      743.281    -282.968     340.801
  O      743.830    -284.238     340.491
  O      745.772    -284.034     342.032
  O      745.902    -285.837     340.236
  H      745.811    -284.833     342.599
  H      742.215    -283.012     340.725
  H      743.657    -282.239     340.114
  H      743.557    -282.694     341.798

 6  7  8  9  10  11  12  13  14  15  25  28  32  33  34  35 0
 6-311+G(2d,p)
 ****
 36  37  40 0
 6-311+G(2d,p)
 ****
 1  2  3  4  5  16  17  18  19  20  21  22  23  24 0
 3-21G
 ****
 26  27  29  30  31  38  39 41  42  43  44  45  46  47  48 0
 3-21G
 ****


