%nproc=1
%NoSave
%Mem=1900MB
#P OB98/GEN NMR

erre ene a

0 1
  C      -76.423    -480.896      11.575
  O      -77.726    -480.300      11.462
  P      -78.364    -479.571      12.746
  C      -80.731    -480.620      12.353
  O      -79.948    -479.443      12.530
  C      -82.166    -480.242      11.977
  O      -82.727    -479.330      12.949
  C      -82.300    -479.526      10.638
  O      -82.194    -480.421       9.545
  C      -83.682    -478.894      10.775
  O      -84.713    -479.842      10.444
  C      -83.725    -478.538      12.272
  N      -83.528    -477.110      12.513
  C      -84.504    -476.471      13.281
  O      -85.514    -477.038      13.687
  N      -84.288    -475.145      13.530
  C      -83.254    -474.393      13.048
  O      -83.128    -473.196      13.293
  C      -82.300    -475.102      12.181
  C      -82.479    -476.406      11.954
  O      -77.882    -478.052      12.541
  O      -77.923    -480.091      14.074
  H      -85.564    -479.415      10.665
  H      -77.810    -477.615      13.412
  H      -84.965    -474.671      14.106
  H      -81.475    -474.535      11.759
  H      -81.785    -476.941      11.319
  H      -84.690    -478.835      12.703
  H      -83.812    -478.036      10.108
  H      -81.547    -478.730      10.570
  H      -82.772    -481.160      11.982
  H      -80.744    -481.187      13.291
  H      -80.274    -481.237      11.575
  P      -80.755    -481.093       9.306
  C      -81.187    -481.365       6.744
  O      -80.916    -481.980       7.982
  O      -80.706    -482.150      10.508
  O      -79.636    -480.103       9.304
  H      -81.589    -482.508      10.721
  H      -80.716    -480.377       6.669
  H      -82.266    -481.258       6.623
  H      -80.796    -482.000       5.938
  H      -76.149    -481.335      10.638
  H      -76.441    -481.652      12.332
  H      -75.709    -480.144      11.839

 3  4  5  6  7  8  9  10  11  12  13  23  28  29  30  31  32 0
 6-311+G(2d,p)
 ****
 33  34 0
 6-311+G(2d,p)
 ****
 1  2  14  15  16  17  18  19  20  21  22  24  25  26 0
 3-21G
 ****
 27  35  36  37  38  39  40  41  42  43  44  45 0
 3-21G
 ****


