%nproc=1
%NoSave
%Mem=1900MB
#P OB98/GEN NMR

erre ene a

0 1
  C       51.292    -297.709      82.779
  O       51.651    -298.930      83.391
  H       51.721    -296.885      83.358
  H       50.206    -297.596      82.759
  H       51.689    -297.668      81.761
  P       51.034    -300.268      82.756
  C       51.763    -302.758      82.600
  O       52.081    -301.446      83.046
  C       52.909    -303.706      82.943
  O       54.017    -303.483      82.039
  C       53.480    -303.509      84.340
  O       52.684    -304.107      85.348
  C       54.832    -304.185      84.195
  O       54.742    -305.601      84.399
  C       55.220    -303.852      82.744
  N       56.239    -302.806      82.680
  C       57.518    -303.231      82.334
  O       57.799    -304.403      82.089
  N       58.482    -302.261      82.313
  C       58.306    -300.951      82.647
  O       59.229    -300.145      82.664
  C       56.938    -300.563      83.024
  C       55.980    -301.494      83.026
  O       51.167    -300.018      81.182
  O       49.628    -300.566      83.160
  H       50.289    -299.825      80.803
  H       54.550    -305.724      85.351
  H       59.415    -302.547      82.063
  H       56.762    -299.530      83.298
  H       54.965    -301.237      83.309
  H       55.616    -304.743      82.239
  H       55.540    -303.799      84.926
  H       53.634    -302.441      84.540
  H       52.558    -304.738      82.812
  H       51.620    -302.754      81.514
  H       50.830    -303.079      83.076
  P       52.915    -303.635      86.865
  C       51.467    -304.064      89.019
  O       51.520    -303.874      87.615
  O       53.004    -302.049      86.665
  O       54.109    -304.262      87.500
  H       52.507    -301.754      85.882
  H       50.451    -304.206      89.322
  H       51.869    -303.203      89.511
  H       52.042    -304.927      89.284

 6  7  8  9  10  11  12  13  14  15  16  27  31  32  33  34  35 0
 6-311+G(2d,p)
 ****
 36  37 0
 6-311+G(2d,p)
 ****
 1  2  3  4  5  17  18  19  20  21  22  23  24  25 0
 3-21G
 ****
 26  28  29  30  38  39  40  41  42  43  44  45 0
 3-21G
 ****


