%nproc=1
%NoSave
%Mem=1900MB
#P OB98/GEN NMR

erre ene a

0 1
  C       79.405     266.784     -54.351
  O       80.364     266.097     -53.542
  P       81.620     265.454     -54.302
  C       82.899     265.657     -52.050
  O       82.625     264.867     -53.200
  C       84.113     265.100     -51.308
  O       83.812     263.849     -50.652
  C       85.295     264.800     -52.220
  O       85.951     265.994     -52.614
  C       86.124     263.887     -51.324
  O       86.869     264.660     -50.368
  C       85.036     263.078     -50.599
  N       87.263     258.734     -52.131
  C       87.766     259.862     -51.583
  N       87.106     260.977     -51.205
  C       85.788     260.849     -51.431
  C       85.131     259.760     -51.978
  C       85.928     258.661     -52.342
  N       85.418     257.518     -52.914
  N       83.775     259.999     -52.058
  C       83.620     261.220     -51.589
  N       84.806     261.770     -51.186
  O       82.393     266.728     -54.882
  O       81.239     264.499     -55.386
  H       87.466     264.045     -49.898
  H       82.285     266.772     -55.851
  H       88.841     259.872     -51.430
  H       82.675     261.744     -51.521
  H       85.274     262.918     -49.541
  H       86.841     263.275     -51.879
  H       84.958     264.250     -53.108
  H       84.409     265.831     -50.544
  H       82.032     265.668     -51.385
  H       86.068     256.810     -53.218
  H       84.438     257.488     -53.156
  H       83.067     266.692     -52.366
  P       85.667     266.550     -54.091
  C       86.255     269.004     -53.617
  O       86.673     267.797     -54.226
  O       84.250     267.260     -53.902
  O       85.750     265.530     -55.174
  H       84.224     267.805     -53.095
  H       87.039     269.753     -53.754
  H       86.090     268.853     -52.548
  H       85.336     269.364     -54.091
  H       78.621     267.164     -53.730
  H       78.993     266.106     -55.069
  H       79.883     267.595     -54.859

 3  4  5  6  7  8  9  10  11  12  22  25  29  30  31  32 0
 6-311+G(2d,p)
 ****
 33  36  37 0
 6-311+G(2d,p)
 ****
 1  2  13  14  15  16  17  18  19  20  21  23  24  26 0
 3-21G
 ****
 27  28  34  35  38  39  40  41  42  43  44  45  46  47  48 0
 3-21G
 ****


