%nproc=1
%NoSave
%Mem=1900MB
#P OB98/GEN NMR

erre ene a

0 1
  C       48.204     193.465      28.035
  O       48.139     192.175      27.452
  P       48.457     191.952      25.895
  C       45.973     191.314      25.711
  O       47.038     192.081      25.160
  C       44.725     192.179      25.857
  O       45.026     193.265      26.765
  C       44.226     192.851      24.579
  O       43.394     192.036      23.768
  C       43.397     193.989      25.163
  O       42.121     193.487      25.598
  C       44.238     194.416      26.368
  N       44.466     199.270      24.770
  C       43.423     198.443      25.006
  N       43.445     197.157      25.412
  C       44.708     196.749      25.618
  C       45.871     197.477      25.427
  C       45.718     198.801      24.981
  N       46.782     199.648      24.763
  N       46.981     196.711      25.726
  C       46.492     195.549      26.103
  N       45.124     195.525      26.063
  O       49.235     190.720      25.594
  O       49.214     193.288      25.453
  H       41.702     193.066      24.825
  H       49.677     193.144      24.605
  H       42.437     198.871      24.842
  H       47.085     194.699      26.407
  H       43.625     194.703      27.229
  H       43.197     194.784      24.440
  H       45.056     193.273      23.998
  H       43.933     191.570      26.311
  H       46.282     190.958      26.700
  H       46.572     200.615      24.572
  H       47.696     199.353      25.076
  H       45.780     190.445      25.078
  P       43.940     191.659      22.303
  C       42.120     193.263      21.321
  O       43.472     192.856      21.347
  O       43.581     190.290      21.841
  O       45.518     191.894      22.442
  H       45.789     192.817      22.570
  H       42.041     194.184      20.737
  H       41.752     193.457      22.331
  H       41.506     192.492      20.846
  H       47.959     193.399      29.074
  H       47.508     194.113      27.545
  H       49.194     193.856      27.926

 3  4  5  6  7  8  9  10  11  12  22  25  29  30  31  32 0
 6-311+G(2d,p)
 ****
 33  36  37 0
 6-311+G(2d,p)
 ****
 1  2  13  14  15  16  17  18  19  20  21  23  24  26 0
 3-21G
 ****
 27  28  34  35  38  39  40  41  42  43  44  45  46  47  48 0
 3-21G
 ****


