%nproc=1
%NoSave
%Mem=1900MB
#P OB98/GEN NMR

erre ene a

0 1
  C      561.713     826.458     473.023
  O      560.972     825.530     473.787
  H      562.561     825.963     472.541
  H      561.064     826.875     472.252
  H      562.071     827.270     473.662
  P      561.785     824.721     474.911
  C      562.975     823.239     473.153
  O      562.122     823.282     474.284
  C      563.686     821.893     473.081
  O      564.539     821.716     474.230
  C      562.759     820.680     473.075
  O      562.187     820.458     471.795
  C      563.736     819.579     473.457
  O      564.481     819.173     472.296
  C      564.656     820.287     474.458
  N      566.014     817.651     478.654
  C      566.549     817.713     477.414
  N      566.132     818.422     476.346
  C      565.046     819.150     476.655
  C      564.387     819.189     477.871
  C      564.908     818.393     478.904
  N      564.345     818.325     480.162
  N      563.317     820.056     477.818
  C      563.324     820.531     476.589
  N      564.347     820.006     475.846
  O      560.667     824.392     476.013
  O      562.941     825.447     475.508
  H      563.825     818.945     471.611
  H      561.075     824.433     476.899
  H      567.444     817.107     477.255
  H      562.619     821.256     476.201
  H      565.712     820.027     474.286
  H      563.243     818.687     473.857
  H      561.988     820.770     473.850
  H      564.325     821.893     472.188
  H      563.724     824.036     473.231
  H      564.871     817.898     480.901
  H      563.524     818.889     480.339
  H      562.378     823.405     472.250
  P      560.604     820.696     471.640
  C      559.990     818.880     473.388
  O      559.917     819.301     472.031
  O      560.405     820.776     470.056
  O      560.074     821.909     472.323
  H      559.600     821.293     469.848
  H      559.492     817.939     473.497
  H      559.517     819.608     474.013
  H      561.016     818.776     473.674

 6  7  8  9  10  11  12  13  14  15  25  28  32  33  34  35 0
 6-311+G(2d,p)
 ****
 36  39  40 0
 6-311+G(2d,p)
 ****
 1  2  3  4  5  16  17  18  19  20  21  22  23  24 0
 3-21G
 ****
 26  27  29  30  31  37  38  41  42  43  44  45  46  47  48 0
 3-21G
 ****


