%nproc=1
%NoSave
%Mem=1900MB
#P OB98/GEN NMR

erre ene a

0 1
  C     -147.362     159.293     252.362
  O     -146.652     158.402     251.525
  H     -147.962     159.959     251.736
  H     -146.668     159.899     252.953
  H     -148.028     158.732     253.023
  P     -145.659     157.369     252.253
  C     -147.492     155.555     252.397
  O     -146.226     155.914     251.853
  C     -148.092     154.380     251.621
  O     -147.983     154.665     250.200
  C     -147.378     153.046     251.880
  O     -148.345     151.990     251.862
  C     -146.459     152.904     250.677
  O     -146.098     151.547     250.427
  C     -147.304     153.555     249.581
  N     -145.471     152.226     245.014
  C     -146.399     151.661     245.816
  N     -146.846     152.097     247.016
  C     -146.276     153.279     247.335
  C     -145.315     153.970     246.618
  C     -144.900     153.394     245.403
  N     -143.932     153.945     244.600
  N     -144.941     155.117     247.303
  C     -145.669     155.114     248.403
  N     -146.476     154.008     248.477
  O     -145.455     157.590     253.714
  O     -144.342     157.484     251.351
  H     -145.463     151.263     251.118
  H     -144.554     157.449     250.397
  H     -146.836     150.729     245.458
  H     -145.639     155.873     249.183
  H     -148.060     152.872     249.165
  H     -145.537     153.476     250.847
  H     -146.829     153.023     252.824
  H     -149.161     154.313     251.851
  H     -148.176     156.410     252.359
  H     -143.694     153.463     243.741
  H     -143.496     154.813     244.865
  H     -147.339     155.280     253.446
  P     -148.513     151.058     253.157
  C     -150.255     152.377     254.529
  O     -150.008     151.227     253.730
  O     -147.426     151.174     254.180
  O     -148.554     149.583     252.530
  H     -148.018     148.979     253.090
  H     -151.276     152.377     254.848
  H     -150.061     153.259     253.955
  H     -149.614     152.361     255.385

 6  7  8  9  10  11  12  13  14  15  25  28  32  33  34  35 0
 6-311+G(2d,p)
 ****
 36  39  40 0
 6-311+G(2d,p)
 ****
 1  2  3  4  5  16  17  18  19  20  21  22  23  24 0
 3-21G
 ****
 26  27  29  30  31  37  38  41  42  43  44  45  46  47 0
 3-21G
 ****
 48 0
 3-21G
 ****


