%nproc=1
%NoSave
%Mem=1900MB
#P OB98/GEN NMR

erre ene a

0 1
  C       -5.441    1031.555     -96.783
  O       -4.831    1031.514     -98.060
  H       -6.386    1032.097     -96.862
  H       -4.794    1032.080     -96.072
  H       -5.642    1030.538     -96.426
  P       -3.412    1030.775     -98.150
  C       -2.458    1032.904     -99.287
  O       -2.607    1031.494     -99.342
  C       -1.098    1033.316     -99.837
  O       -0.031    1032.742     -99.044
  C       -0.836    1032.896    -101.279
  O       -1.412    1033.817    -102.189
  C        0.683    1032.907    -101.322
  O        1.203    1034.237    -101.508
  C        1.051    1032.364     -99.935
  N        3.602    1028.507    -101.971
  C        3.694    1029.859    -102.210
  N        4.556    1030.238    -103.190
  N        2.993    1030.761    -101.571
  C        2.150    1030.231    -100.655
  C        1.980    1028.912    -100.310
  C        2.779    1027.926    -101.006
  O        2.795    1026.718    -100.786
  N        1.042    1028.773     -99.322
  C        0.620    1030.002     -99.093
  N        1.249    1030.927     -99.897
  O       -3.770    1029.341     -98.764
  O       -2.666    1030.653     -96.861
  H        1.066    1034.515    -102.430
  H       -3.138    1028.682     -98.422
  H        4.175    1027.860    -102.484
  H       -0.135    1030.279     -98.369
  H        1.971    1032.820     -99.540
  H        1.067    1032.312    -102.152
  H        4.849    1029.597    -103.910
  H       -1.197    1031.879    -101.458
  H        4.618    1031.231    -103.386
  H       -1.013    1034.408     -99.737
  H       -2.545    1033.234     -98.251
  H       -3.257    1033.372     -99.880
  P       -1.756    1033.281    -103.670
  C       -0.407    1035.241    -104.723
  O       -1.649    1034.551    -104.647
  O       -3.332    1033.000    -103.606
  O       -0.987    1032.067    -104.092
  H       -3.601    1032.426    -104.346
  H       -0.494    1036.057    -105.410
  H        0.354    1034.569    -105.061
  H       -0.148    1035.616    -103.755

 6  7  8  9  10  11  12  13  14  15  26  29  33  34 0
 6-311+G(2d,p)
 ****
 36  38  39  40  41 0
 6-311+G(2d,p)
 ****
 1  2  3  4  5  16  17  18  19  20  21  22  23  24  25 0
 3-21G
 ****
 27  28  30  31  32  35  37  42  43  44  45  46  47 0
 3-21G
 ****
 48  49 0
 3-21G
 ****


