%nproc=1
%NoSave
%Mem=1900MB
#P OB98/GEN NMR

erre ene a

0 1
  C      452.625     477.704    -185.298
  O      453.607     477.623    -186.306
  H      452.491     478.750    -185.012
  H      452.938     477.136    -184.415
  H      451.662     477.321    -185.664
  P      453.870     476.218    -187.022
  C      453.990     473.856    -185.980
  O      454.418     475.208    -185.891
  C      454.766     473.007    -184.978
  O      454.913     473.714    -183.721
  C      454.085     471.684    -184.631
  O      454.214     470.736    -185.673
  C      454.791     471.331    -183.333
  O      456.055     470.702    -183.597
  C      455.003     472.712    -182.679
  N      454.015     472.966    -181.619
  C      453.755     471.906    -180.763
  O      454.299     470.811    -180.852
  N      452.789     472.129    -179.826
  C      451.976     473.229    -179.753
  O      450.968     473.283    -179.056
  C      452.344     474.340    -180.637
  C      453.327     474.167    -181.528
  O      454.681     476.266    -188.274
  O      452.393     475.660    -187.306
  H      452.173     475.803    -188.249
  H      456.406     470.432    -182.722
  H      452.556     471.345    -179.221
  H      451.779     475.269    -180.567
  H      453.588     474.960    -182.219
  H      456.006     472.793    -182.251
  H      454.195     470.642    -182.725
  H      453.020     471.871    -184.409
  H      455.772     472.826    -185.382
  H      454.173     473.495    -186.992
  H      452.914     473.808    -185.773
  P      453.334     469.392    -185.646
  C      452.826     467.509    -183.975
  O      453.707     468.575    -184.316
  O      453.373     468.584    -186.906
  O      451.850     469.900    -185.348
  H      451.232     469.496    -186.009
  H      453.168     467.037    -183.078
  H      452.808     466.793    -184.770
  H      451.840     467.896    -183.821

 6  7  8  9  10  11  12  13  14  15  16  27  31  32  33  34  35 0
 6-311+G(2d,p)
 ****
 36  37 0
 6-311+G(2d,p)
 ****
 1  2  3  4  5  17  18  19  20  21  22  23  24  25 0
 3-21G
 ****
 26  28  29  30  38  39  40  41  42  43  44  45 0
 3-21G
 ****


