%nproc=1
%NoSave
%Mem=1900MB
#P OB98/GEN NMR

erre ene a

0 1
  C       30.895      72.427     -23.505
  O       30.210      71.189     -23.559
  H       31.464      72.554     -24.431
  H       31.590      72.434     -22.660
  H       30.182      73.250     -23.411
  P       29.331      70.803     -22.272
  C       29.850      69.769     -19.947
  O       30.332      70.069     -21.252
  C       30.914      69.028     -19.144
  O       31.189      67.736     -19.734
  C       32.249      69.753     -19.045
  O       32.228      70.727     -18.013
  C       33.195      68.599     -18.744
  O       33.163      68.241     -17.347
  C       32.614      67.474     -19.613
  N       33.622      64.340     -23.442
  C       32.937      64.119     -22.265
  N       32.500      62.855     -22.054
  N       32.707      65.043     -21.370
  C       33.233      66.247     -21.702
  C       33.917      66.598     -22.844
  C       34.134      65.570     -23.841
  O       34.677      65.719     -24.932
  N       34.272      67.923     -22.822
  C       33.840      68.361     -21.657
  N       33.216      67.376     -20.931
  O       28.404      69.606     -22.799
  O       28.519      71.912     -21.694
  H       33.795      67.521     -17.188
  H       27.556      69.626     -22.318
  H       33.751      63.593     -24.100
  H       33.954      69.372     -21.294
  H       32.723      66.489     -19.140
  H       34.232      68.855     -18.976
  H       32.922      62.063     -22.521
  H       32.520      70.204     -20.009
  H       32.016      62.679     -21.185
  H       30.500      68.843     -18.143
  H       28.956      69.138     -20.034
  H       29.580      70.703     -19.441
  P       33.185      72.007     -18.176
  C       35.694      72.504     -17.675
  O       34.612      71.586     -17.572
  O       32.616      73.033     -17.087
  O       33.210      72.598     -19.543
  H       32.939      73.937     -17.278
  H       36.568      72.077     -17.229
  H       35.441      73.412     -17.168
  H       35.887      72.714     -18.706

 6  7  8  9  10  11  12  13  14  15  26  29  33  34 0
 6-311+G(2d,p)
 ****
 36  38  39  40  41 0
 6-311+G(2d,p)
 ****
 1  2  3  4  5  16  17  18  19  20  21  22  23  24  25 0
 3-21G
 ****
 27  28  30  31  32  35  37  42  43  44  45  46  47 0
 3-21G
 ****
 48  49 0
 3-21G
 ****


