%nproc=1
%NoSave
%Mem=1900MB
#P OB98/GEN NMR

erre ene a

0 1
  C       76.731     -56.580     195.637
  O       77.727     -55.583     195.728
  H       76.462     -56.710     194.585
  H       75.839     -56.275     196.190
  H       77.100     -57.534     196.024
  P       78.399     -55.288     197.152
  C       79.840     -56.597     198.840
  O       79.103     -56.649     197.625
  C       79.553     -57.842     199.676
  O       78.206     -57.796     200.197
  C       79.651     -59.147     198.893
  O       81.002     -59.499     198.669
  C       78.881     -60.081     199.814
  O       79.695     -60.506     200.916
  C       77.739     -59.160     200.306
  N       76.493     -59.352     199.561
  C       75.519     -60.123     200.185
  O       75.668     -60.629     201.295
  N       74.372     -60.333     199.464
  C       74.154     -59.931     198.177
  O       73.213     -60.325     197.497
  C       75.187     -59.058     197.598
  C       76.299     -58.825     198.299
  O       77.511     -54.649     198.167
  O       79.647     -54.349     196.792
  H       79.417     -53.420     196.986
  H       80.518     -60.866     200.531
  H       73.678     -60.930     199.888
  H       75.021     -58.665     196.603
  H       77.086     -58.209     197.879
  H       77.532     -59.341     201.368
  H       78.541     -60.983     199.301
  H       79.108     -59.058     197.945
  H       80.245     -57.848     200.529
  H       79.532     -55.706     199.398
  H       80.908     -56.522     198.609
  P       81.420     -60.434     197.440
  C       81.770     -60.100     194.925
  O       81.077     -59.655     196.082
  O       80.895     -61.831     197.501
  O       83.022     -60.426     197.466
  H       83.346     -61.348     197.476
  H       81.468     -59.516     194.081
  H       81.541     -61.130     194.746
  H       82.824     -59.990     195.076

 6  7  8  9  10  11  12  13  14  15  16  27  31  32  33  34  35 0
 6-311+G(2d,p)
 ****
 36  37 0
 6-311+G(2d,p)
 ****
 1  2  3  4  5  17  18  19  20  21  22  23  24  25 0
 3-21G
 ****
 26  28  29  30  38  39  40  41  42  43  44  45 0
 3-21G
 ****


