%nproc=1
%NoSave
%Mem=1900MB
#P OB98/GEN NMR

erre ene a

0 1
  C      712.745      62.955      44.969
  O      713.521      61.909      45.525
  H      712.147      62.577      44.136
  H      712.077      63.344      45.740
  H      713.399      63.761      44.623
  P      714.548      61.167      44.539
  C      714.151      58.642      44.994
  O      714.962      59.785      45.252
  C      713.601      58.090      46.312
  O      714.717      57.814      47.195
  C      712.626      59.026      47.041
  O      711.368      58.374      47.242
  C      713.269      59.253      48.405
  O      712.325      59.252      49.477
  C      714.257      58.096      48.522
  N      716.181      57.486      53.205
  C      715.297      56.746      52.495
  N      714.904      56.900      51.220
  C      715.555      57.937      50.649
  C      716.502      58.758      51.228
  C      716.795      58.518      52.588
  N      717.654      59.306      53.322
  N      716.933      59.724      50.338
  C      716.229      59.501      49.236
  N      715.366      58.447      49.389
  O      715.876      62.057      44.658
  O      714.091      61.038      43.128
  H      711.705      59.987      49.305
  H      716.217      62.252      43.762
  H      714.834      55.923      53.040
  H      716.272      60.095      48.330
  H      713.785      57.187      48.925
  H      713.789      60.221      48.393
  H      712.476      59.974      46.515
  H      713.115      57.123      46.102
  H      714.757      57.867      44.510
  H      717.724      59.130      54.304
  H      718.031      60.138      52.888
  H      713.340      58.924      44.319
  P      710.166      58.824      46.263
  C      708.361      59.087      48.126
  O      708.788      58.384      46.962
  O      710.299      57.805      45.036
  O      710.243      60.251      45.817
  H      709.937      58.208      44.223
  H      707.434      58.678      48.469
  H      708.229      60.122      47.889
  H      709.100      58.988      48.893

 6  7  8  9  10  11  12  13  14  15  25  28  32  33  34  35 0
 6-311+G(2d,p)
 ****
 36  39  40 0
 6-311+G(2d,p)
 ****
 1  2  3  4  5  16  17  18  19  20  21  22  23  24 0
 3-21G
 ****
 26  27  29  30  31  37  38  41  42  43  44  45  46  47  48 0
 3-21G
 ****


