%nproc=1
%NoSave
%Mem=1900MB
#P OB98/GEN NMR

erre ene a

0 1
  C     -891.910    -203.480    -890.740
  O     -891.760    -202.093    -891.100
  P     -891.410    -201.752    -892.630
  C     -893.630    -201.125    -893.780
  O     -892.640    -202.117    -893.580
  C     -894.590    -201.489    -894.970
  O     -893.810    -201.788    -896.170
  C     -895.430    -202.698    -894.680
  O     -896.730    -202.524    -895.310
  C     -894.690    -203.857    -895.370
  O     -895.540    -204.991    -895.580
  C     -894.220    -203.068    -896.640
  N     -892.850    -207.237    -899.240
  C     -894.040    -206.860    -898.730
  N     -894.320    -205.714    -898.030
  C     -893.190    -204.967    -897.880
  C     -891.910    -205.248    -898.340
  C     -891.740    -206.462    -899.030
  N     -890.560    -206.911    -899.510
  N     -891.030    -204.253    -897.970
  C     -891.780    -203.398    -897.310
  N     -893.090    -203.729    -897.270
  O     -890.260    -202.867    -893.010
  O     -890.850    -200.371    -892.830
  H     -896.370    -204.648    -896.050
  H     -889.410    -202.442    -893.040
  H     -894.880    -207.497    -898.920
  H     -891.370    -202.463    -896.840
  H     -895.000    -202.964    -897.390
  H     -893.850    -204.186    -894.760
  H     -895.620    -202.939    -893.580
  H     -895.240    -200.607    -895.150
  H     -893.110    -200.171    -894.020
  H     -890.510    -207.804    -900.000
  H     -889.720    -206.352    -899.360
  H     -894.180    -200.930    -892.860
  P     -897.800    -201.561    -894.580
  C     -899.310    -200.944    -896.610
  O     -898.280    -200.517    -895.760
  O     -896.870    -200.587    -893.690
  O     -898.850    -202.233    -893.810
  H     -897.400    -200.289    -892.900
  H     -900.000    -200.133    -896.790
  H     -899.880    -201.770    -896.250
  H     -898.880    -201.235    -897.610
  H     -892.140    -203.555    -889.698
  H     -890.998    -204.002    -890.942
  H     -892.703    -203.913    -891.313

 3  4  5  6  7  8  9  10  11  12  22  25  29  30  31  32 0
 6-311+G(2d,p)
 ****
 33  36  37 0
 6-311+G(2d,p)
 ****
 1  2  13  14  15  16  17  18  19  20  21  23  24  26 0
 3-21G
 ****
 27  28  34  35  38  39  40  41  42  43  44  45  46  47  48 0
 3-21G
 ****


