%nproc=1
%NoSave
%Mem=1900MB
#P OB98/GEN NMR

erre ene a

0 1
  C     -363.678      29.069    -674.236
  O     -362.319      28.678    -674.239
  H     -364.306      28.181    -674.287
  H     -363.881      29.689    -675.117
  H     -363.920      29.626    -673.328
  P     -361.240      29.767    -673.783
  C     -359.357      29.619    -675.575
  O     -359.804      29.224    -674.277
  C     -358.210      28.713    -676.022
  O     -357.075      28.913    -675.137
  C     -358.542      27.217    -676.027
  O     -357.889      26.599    -677.140
  C     -357.880      26.725    -674.755
  O     -357.596      25.323    -674.794
  C     -356.628      27.608    -674.730
  N     -353.498      25.038    -671.763
  C     -353.780      24.902    -673.106
  N     -353.184      23.873    -673.751
  N     -354.591      25.689    -673.758
  C     -355.101      26.684    -672.991
  C     -354.899      26.938    -671.654
  C     -354.025      26.039    -670.938
  O     -353.746      26.113    -669.746
  N     -355.653      28.014    -671.243
  C     -356.328      28.388    -672.328
  N     -356.023      27.625    -673.409
  O     -361.185      29.555    -672.195
  O     -361.550      31.179    -674.148
  H     -357.403      25.026    -673.883
  H     -361.784      30.194    -671.757
  H     -352.887      24.386    -671.293
  H     -357.039      29.203    -672.356
  H     -355.857      27.264    -675.438
  H     -358.518      26.924    -673.893
  H     -352.538      23.230    -673.313
  H     -359.621      27.001    -676.047
  H     -353.359      23.773    -674.745
  H     -357.892      29.030    -677.035
  H     -359.015      30.655    -675.537
  H     -360.201      29.557    -676.278
  P     -358.614      26.693    -678.578
  C     -358.800      24.191    -679.321
  O     -358.133      25.438    -679.470
  O     -357.881      27.945    -679.267
  O     -360.090      26.893    -678.510
  H     -358.509      28.419    -679.825
  H     -358.361      23.471    -679.980
  H     -359.836      24.310    -679.561
  H     -358.705      23.854    -678.310

 6  7  8  9  10  11  12  13  14  15  26  29  33  34 0
 6-311+G(2d,p)
 ****
 36  38  39  40  41 0
 6-311+G(2d,p)
 ****
 1  2  3  4  5  16  17  18  19  20  21  22  23  24  25 0
 3-21G
 ****
 27  28  30  31  32  35  37  42  43  44  45  46  47 0
 3-21G
 ****
 48  49 0
 3-21G
 ****


