%nproc=1
%NoSave
%Mem=1900MB
#P OB98/GEN NMR

erre ene a

0 1
  C      322.272    -234.173     -22.679
  O      322.680    -232.833     -22.880
  H      323.102    -234.834     -22.942
  H      321.416    -234.408     -23.317
  H      322.015    -234.332     -21.629
  P      321.587    -231.697     -22.581
  C      319.206    -231.235     -23.485
  O      320.357    -232.065     -23.543
  C      318.149    -231.715     -24.476
  O      317.879    -233.113     -24.278
  C      316.809    -231.001     -24.360
  O      316.836    -229.776     -25.074
  C      315.884    -232.010     -25.025
  O      315.969    -231.874     -26.457
  C      316.484    -233.358     -24.592
  N      313.561    -237.258     -22.980
  C      313.869    -236.823     -24.219
  N      314.606    -235.747     -24.575
  C      315.055    -235.097     -23.488
  C      314.819    -235.423     -22.161
  C      314.037    -236.565     -21.920
  N      313.722    -237.006     -20.652
  N      315.435    -234.523     -21.317
  C      316.081    -233.704     -22.121
  N      315.853    -233.987     -23.446
  O      322.079    -230.291     -22.650
  O      321.051    -232.160     -21.145
  H      316.908    -231.980     -26.696
  H      320.957    -233.129     -21.110
  H      313.468    -237.413     -25.038
  H      316.742    -232.908     -21.799
  H      316.456    -234.093     -25.404
  H      314.838    -231.864     -24.754
  H      316.505    -230.869     -23.316
  H      318.562    -231.604     -25.489
  H      319.478    -230.196     -23.709
  H      313.007    -237.710     -20.573
  H      313.971    -236.414     -19.872
  H      318.817    -231.278     -22.462
  P      315.677    -228.681     -24.887
  C      313.220    -228.506     -25.622
  O      314.415    -229.274     -25.679
  O      316.075    -227.292     -25.246
  O      315.241    -228.826     -23.356
  H      314.738    -228.038     -23.077
  H      312.453    -228.998     -26.183
  H      313.399    -227.536     -26.037
  H      312.908    -228.406     -24.603

 6  7  8  9  10  11  12  13  14  15  25  28  32  33  34  35 0
 6-311+G(2d,p)
 ****
 36  39  40 0
 6-311+G(2d,p)
 ****
 1  2  3  4  5  16  17  18  19  20  21  22  23  24 0
 3-21G
 ****
 26  27  29  30  31  37  38  41  42  43  44  45  46  47 0
 3-21G
 ****
 48 0
 3-21G
 ****


