%nproc=1
%NoSave
%Mem=1900MB
#P OB98/GEN NMR

erre ene a

0 1
  C      -37.038    -135.840    -202.544
  O      -38.245    -136.596    -202.416
  P      -39.278    -136.120    -201.288
  C      -41.608    -136.627    -202.315
  O      -40.627    -135.645    -202.012
  C      -42.975    -135.967    -202.494
  O      -43.524    -135.524    -201.233
  C      -42.935    -134.723    -203.372
  O      -42.808    -135.069    -204.740
  C      -44.265    -134.070    -203.003
  O      -45.347    -134.707    -203.701
  C      -44.364    -134.376    -201.501
  N      -45.977    -130.357    -198.775
  C      -46.643    -131.277    -199.508
  N      -46.139    -132.316    -200.207
  C      -44.802    -132.366    -200.089
  C      -43.989    -131.502    -199.374
  C      -44.630    -130.451    -198.696
  N      -43.951    -129.506    -197.961
  N      -42.665    -131.870    -199.492
  C      -42.677    -132.924    -200.283
  N      -43.947    -133.269    -200.660
  O      -38.635    -134.758    -200.749
  O      -39.465    -137.114    -200.188
  H      -45.294    -135.665    -203.508
  H      -38.272    -134.891    -199.854
  H      -47.722    -131.163    -199.540
  H      -41.799    -133.467    -200.608
  H      -45.385    -134.642    -201.199
  H      -44.300    -133.005    -203.246
  H      -42.103    -134.074    -203.072
  H      -43.658    -136.708    -202.930
  H      -41.660    -137.371    -201.516
  H      -44.478    -128.741    -197.571
  H      -42.941    -129.516    -197.966
  H      -41.305    -137.160    -203.222
  P      -42.082    -134.019    -205.711
  C      -39.827    -135.139    -206.217
  O      -40.520    -134.224    -205.390
  O      -42.409    -132.632    -204.989
  O      -42.468    -134.116    -207.147
  H      -42.265    -132.683    -204.026
  H      -38.775    -135.155    -205.915
  H      -39.892    -134.828    -207.263
  H      -40.246    -136.141    -206.096
  H      -36.438    -136.256    -203.326
  H      -36.496    -135.874    -201.622
  H      -37.277    -134.824    -202.780

 3  4  5  6  7  8  9  10  11  12  22  25  29  30  31  32 0
 6-311+G(2d,p)
 ****
 33  36  37 0
 6-311+G(2d,p)
 ****
 1  2  13  14  15  16  17  18  19  20  21  23  24  26 0
 3-21G
 ****
 27  28  34  35  38  39  40  41  42  43  44  45  46  47  48 0
 3-21G
 ****


