%nproc=1
%NoSave
%Mem=1900MB
#P OB98/GEN NMR

erre ene a

0 1
  C      -38.655      33.739     -65.988
  O      -39.499      32.991     -66.847
  P      -38.895      32.164     -68.074
  C      -39.363      33.996     -69.894
  O      -38.433      33.195     -69.199
  C      -38.617      34.816     -70.955
  O      -37.877      35.883     -70.329
  C      -37.631      33.954     -71.739
  O      -38.224      33.479     -72.937
  C      -36.474      34.905     -71.973
  O      -36.747      35.765     -73.094
  C      -36.471      35.722     -70.659
  N      -35.789      35.147     -69.484
  C      -34.524      34.585     -69.629
  O      -33.907      34.560     -70.689
  N      -33.992      34.020     -68.498
  C      -34.573      34.008     -67.263
  O      -34.208      33.300     -66.332
  C      -35.766      34.846     -67.118
  C      -36.323      35.349     -68.219
  O      -40.188      31.473     -68.714
  O      -37.843      31.165     -67.719
  H      -36.847      35.194     -73.876
  H      -40.269      30.549     -68.412
  H      -33.137      33.487     -68.628
  H      -36.182      34.981     -66.129
  H      -37.231      35.942     -68.140
  H      -36.051      36.721     -70.819
  H      -35.562      34.364     -72.221
  H      -37.280      33.120     -71.119
  H      -39.351      35.268     -71.634
  H      -39.884      34.659     -69.195
  H      -40.122      33.366     -70.368
  P      -37.998      31.960     -73.382
  C      -36.021      32.758     -74.803
  O      -36.452      31.866     -73.795
  O      -38.964      31.434     -74.391
  O      -38.086      31.156     -71.999
  H      -38.983      30.779     -71.891
  H      -34.931      32.720     -74.863
  H      -36.331      33.781     -74.570
  H      -36.439      32.454     -75.767
  H      -39.246      34.217     -65.235
  H      -38.134      34.481     -66.557
  H      -37.948      33.084     -65.524

 3  4  5  6  7  8  9  10  11  12  13  23  28  29  30  31  32 0
 6-311+G(2d,p)
 ****
 33  34 0
 6-311+G(2d,p)
 ****
 1  2  14  15  16  17  18  19  20  21  22  24  25  26  27 0
 3-21G
 ****
 35  36  37  38  39  40  41  42  43  44  45 0
 3-21G
 ****


