%nproc=1
%NoSave
%Mem=1900MB
#P OB98/GEN NMR

erre ene a

0 1
  C      289.727     428.705    -485.165
  O      289.398     430.028    -484.773
  P      290.443     431.195    -485.121
  C      291.434     431.754    -482.797
  O      290.528     432.135    -483.826
  C      290.796     431.903    -481.424
  O      290.273     433.256    -481.291
  C      289.630     430.936    -481.158
  O      289.743     430.418    -479.822
  C      288.401     431.830    -481.191
  O      287.323     431.296    -480.430
  C      288.993     433.133    -480.645
  N      284.544     435.312    -479.670
  C      285.136     434.223    -479.066
  N      284.411     433.596    -478.118
  N      286.330     433.788    -479.375
  C      286.950     434.532    -480.326
  C      286.468     435.641    -480.987
  C      285.118     436.080    -480.681
  O      284.503     436.982    -481.233
  N      287.391     436.139    -481.868
  C      288.432     435.330    -481.751
  N      288.187     434.311    -480.860
  O      289.648     432.076    -486.185
  O      291.757     430.729    -485.674
  H      286.606     431.958    -480.455
  H      290.166     432.158    -487.010
  H      283.620     435.598    -479.400
  H      289.360     435.429    -482.302
  H      289.169     433.039    -479.563
  H      288.070     431.947    -482.231
  H      283.505     433.896    -477.805
  H      289.553     430.107    -481.871
  H      284.843     432.799    -477.655
  H      291.577     431.796    -480.658
  H      292.326     432.382    -482.847
  H      291.732     430.708    -482.958
  P      289.312     428.873    -479.635
  C      286.839     428.788    -478.796
  O      288.218     428.868    -478.461
  O      290.605     428.217    -478.950
  O      288.921     428.195    -480.903
  H      290.628     427.253    -479.133
  H      286.689     428.565    -479.862
  H      286.360     429.735    -478.555
  H      286.384     427.990    -478.201
  H      288.943     428.040    -484.869
  H      290.642     428.410    -484.694
  H      289.845     428.667    -486.228

 3  4  5  6  7  8  9  10  11  12  23  26  30  31  33  0
 6-311+G(2d,p)
 ****
 35  36  37  38 0
 6-311+G(2d,p)
 ****
 1  2  13  14  15  16  17  18  19  20  21  22  24  25  27  28  29 0
 3-21G
 ****
 32  34  39  40  41  42  43  44  45  46  47  48  49 0
 3-21G
 ****


