%nproc=1
%NoSave
%Mem=1900MB
#P OB98/GEN NMR

erre ene a

0 1
  C      -15.178     678.310     536.392
  O      -13.891     678.927     536.324
  P      -13.746     680.126     535.263
  C      -15.186     682.221     534.724
  O      -14.741     681.313     535.715
  C      -15.438     683.609     535.336
  O      -16.450     683.577     536.359
  C      -14.204     684.212     535.990
  O      -13.354     684.769     535.003
  C      -14.821     685.258     536.914
  O      -15.092     686.490     536.201
  C      -16.136     684.591     537.346
  N      -14.131     684.801     542.000
  C      -13.800     685.515     540.863
  N      -12.820     686.430     540.990
  N      -14.391     685.339     539.711
  C      -15.355     684.388     539.736
  C      -15.784     683.644     540.800
  C      -15.123     683.844     542.075
  O      -15.385     683.237     543.115
  N      -16.831     682.824     540.460
  C      -16.942     682.993     539.144
  N      -16.115     683.980     538.673
  O      -14.419     679.539     533.940
  O      -12.327     680.546     535.025
  H      -15.426     687.152     536.829
  H      -13.738     679.377     533.259
  H      -13.628     684.969     542.865
  H      -17.626     682.445     538.507
  H      -16.969     685.308     537.354
  H      -14.150     685.528     537.738
  H      -12.324     686.621     541.849
  H      -13.677     683.447     536.580
  H      -12.573     686.972     540.166
  H      -15.787     684.268     534.524
  H      -16.099     681.854     534.261
  H      -14.427     682.283     533.928
  P      -11.778     684.500     535.128
  C      -10.169     682.544     534.521
  O      -11.475     683.096     534.420
  O      -11.585     684.190     536.696
  O      -10.914     685.635     534.687
  H      -10.793     684.664     537.014
  H      -10.243     681.454     534.480
  H       -9.684     682.836     535.456
  H       -9.567     682.893     533.670
  H      -15.162     677.531     537.125
  H      -15.426     677.896     535.437
  H      -15.910     679.041     536.665

 3  4  5  6  7  8  9  10  11  12  23  26  30  31 0
 6-311+G(2d,p)
 ****
 33  35  36  37  38 0
 6-311+G(2d,p)
 ****
 1  2  13  14  15  16  17  18  19  20  21  22  24  25 0
 3-21G
 ****
 27  28  29  32  34  39  40  41  42  43  44  45  46  47  48  49 0
 3-21G
 ****


