%nproc=1
%NoSave
%Mem=1900MB
#P OB98/GEN NMR

erre ene a

0 1
  C      -78.387      69.770     -77.086
  O      -77.584      70.160     -75.989
  H      -77.774      69.280     -77.846
  H      -79.142      69.063     -76.734
  H      -78.891      70.640     -77.515
  P      -76.425      71.226     -76.293
  C      -78.296      73.003     -76.567
  O      -77.120      72.421     -77.109
  C      -78.532      74.378     -77.183
  O      -79.704      74.987     -76.605
  C      -77.401      75.377     -76.966
  O      -76.331      75.169     -77.875
  C      -78.123      76.687     -77.244
  O      -78.239      76.884     -78.666
  C      -79.507      76.426     -76.633
  N      -81.881      79.885     -73.707
  C      -82.012      79.566     -75.012
  N      -81.359      78.618     -75.716
  C      -80.504      77.949     -74.927
  C      -80.276      78.144     -73.576
  C      -81.006      79.170     -72.956
  N      -80.814      79.532     -71.633
  N      -79.310      77.271     -73.112
  C      -78.950      76.577     -74.171
  N      -79.647      76.946     -75.288
  O      -75.535      70.477     -77.397
  O      -75.613      71.636     -75.112
  H      -78.699      76.100     -79.021
  H      -74.774      70.054     -76.959
  H      -82.735      80.154     -75.569
  H      -78.191      75.807     -74.176
  H      -80.314      76.850     -77.241
  H      -77.602      77.559     -76.838
  H      -77.055      75.374     -75.926
  H      -78.727      74.238     -78.254
  H      -78.185      73.107     -75.483
  H      -81.012      80.511     -71.447
  H      -79.975      79.149     -71.212
  H      -79.142      72.343     -76.776
  P      -75.017      76.072     -77.700
  C      -74.141      74.793     -75.631
  O      -74.634      76.024     -76.142
  O      -75.576      77.557     -77.909
  O      -73.909      75.774     -78.649
  H      -75.082      77.998     -78.627
  H      -73.927      74.900     -74.588
  H      -73.247      74.523     -76.153
  H      -74.878      74.030     -75.767

 6  7  8  9  10  11  12  13  14  15  25  28  32  33  34  35 0
 6-311+G(2d,p)
 ****
 36  39  40 0
 6-311+G(2d,p)
 ****
 1  2  3  4  5  16  17  18  19  20  21  22  23  24 0
 3-21G
 ****
 26  27  29  30  31  37  38  41  42  43  44  45  46  47  48 0
 3-21G
 ****


