%nproc=1
%NoSave
%Mem=1900MB
#P OB98/GEN NMR

erre ene a

0 1
  C       34.213    -696.899    -242.115
  O       34.128    -695.890    -243.110
  P       35.050    -694.587    -242.930
  C       35.835    -693.428    -240.741
  O       34.769    -694.069    -241.438
  C       35.325    -692.186    -240.007
  O       34.180    -692.520    -239.204
  C       36.330    -691.570    -239.049
  O       37.265    -690.730    -239.717
  C       35.415    -690.736    -238.168
  O       35.060    -689.515    -238.838
  C       34.182    -691.642    -238.045
  N       31.504    -692.984    -233.907
  C       31.254    -692.095    -234.881
  N       32.024    -691.787    -235.946
  C       33.178    -692.481    -235.920
  C       33.581    -693.394    -234.957
  C       32.687    -693.653    -233.914
  N       32.926    -694.581    -232.926
  N       34.833    -693.896    -235.262
  C       35.165    -693.306    -236.398
  N       34.190    -692.451    -236.836
  O       34.313    -693.497    -243.843
  O       36.480    -694.765    -243.304
  H       34.862    -689.746    -239.764
  H       34.946    -692.801    -244.108
  H       30.305    -691.570    -234.806
  H       36.092    -693.474    -236.931
  H       33.246    -691.086    -238.059
  H       35.873    -690.458    -237.214
  H       36.831    -692.329    -238.442
  H       35.017    -691.457    -240.769
  H       36.604    -693.132    -241.462
  H       32.159    -694.835    -232.326
  H       33.711    -695.212    -233.052
  H       36.273    -694.141    -240.031
  P       38.244    -689.851    -238.789
  C       37.883    -687.794    -237.238
  O       37.294    -688.791    -238.076
  O       39.065    -688.987    -239.852
  O       39.128    -690.662    -237.900
  H       39.932    -688.727    -239.481
  H       37.158    -686.988    -237.091
  H       38.783    -687.378    -237.706
  H       38.137    -688.230    -236.274
  H       33.549    -697.701    -242.363
  H       33.938    -696.488    -241.166
  H       35.216    -697.268    -242.066

 3  4  5  6  7  8  9  10  11  12  22  25  29  30  31  32 0
 6-311+G(2d,p)
 ****
 33  36  37 0
 6-311+G(2d,p)
 ****
 1  2  13  14  15  16  17  18  19  20  21  23  24  26 0
 3-21G
 ****
 27  28  34  35  38  39  40  41  42  43  44  45  46  47  48 0
 3-21G
 ****


