%nproc=1
%NoSave
%Mem=1900MB
#P OB98/GEN NMR

erre ene a

0 1
  C      203.500      67.610     184.267
  O      203.665      68.835     183.578
  P      205.115      69.260     183.045
  C      205.208      71.118     184.839
  O      205.355      70.793     183.452
  C      205.316      72.622     185.046
  O      206.578      73.114     184.555
  C      204.247      73.426     184.309
  O      203.002      73.336     184.977
  C      204.868      74.816     184.300
  O      204.647      75.480     185.555
  C      206.367      74.489     184.129
  N      208.209      77.840     180.761
  C      207.690      77.999     181.998
  N      207.184      77.056     182.820
  C      207.224      75.851     182.229
  C      207.690      75.536     180.960
  C      208.225      76.593     180.207
  N      208.813      76.441     178.969
  N      207.530      74.179     180.709
  C      206.978      73.697     181.796
  N      206.833      74.654     182.773
  O      205.399      68.928     181.622
  O      206.119      68.473     184.016
  H      203.688      75.453     185.742
  H      206.681      67.869     183.484
  H      207.705      79.013     182.380
  H      206.677      72.666     181.938
  H      206.998      75.112     184.772
  H      204.469      75.451     183.515
  H      204.153      73.067     183.279
  H      205.273      72.818     186.127
  H      206.015      70.605     185.382
  H      209.298      77.238     178.591
  H      209.102      75.511     178.698
  H      204.243      70.744     185.189
  P      201.671      73.007     184.152
  C      200.550      75.299     184.466
  O      200.499      73.922     184.771
  O      201.337      71.562     184.012
  O      201.939      73.695     182.725
  H      201.485      73.170     182.033
  H      201.310      75.783     185.093
  H      199.587      75.747     184.669
  H      200.805      75.460     183.414
  H      202.474      67.493     184.546
  H      204.111      67.610     185.146
  H      203.791      66.801     183.630

 3  4  5  6  7  8  9  10  11  12  22  25  29  30  31  32 0
 6-311+G(2d,p)
 ****
 33  36  37 0
 6-311+G(2d,p)
 ****
 1  2  13  14  15  16  17  18  19  20  21  23  24  26 0
 3-21G
 ****
 27  28  34  35  38  39  40  41  42  43  44  45  46  47  48 0
 3-21G
 ****


