%nproc=1
%NoSave
%Mem=1900MB
#P OB98/GEN NMR

erre ene a

0 1
  C      254.157    -235.131     316.955
  O      253.920    -233.857     317.525
  H      255.234    -235.306     316.923
  H      253.766    -235.159     315.932
  H      253.686    -235.914     317.559
  P      252.385    -233.480     317.830
  C      251.816    -232.539     315.445
  O      251.637    -233.560     316.415
  C      250.461    -232.065     314.912
  O      250.673    -230.888     314.093
  C      249.739    -233.100     314.065
  O      248.333    -233.000     314.322
  C      250.029    -232.664     312.634
  O      249.043    -233.142     311.716
  C      250.100    -231.138     312.791
  N      250.896    -230.513     311.728
  C      250.186    -229.853     310.722
  O      248.955    -229.837     310.736
  N      250.882    -229.266     309.695
  C      252.173    -229.383     309.641
  N      252.807    -228.803     308.586
  C      252.958    -230.120     310.655
  C      252.263    -230.643     311.664
  O      252.492    -231.908     318.122
  O      251.766    -234.273     318.932
  H      248.982    -234.118     311.822
  H      253.096    -231.438     317.519
  H      254.033    -230.211     310.555
  H      252.761    -231.191     312.457
  H      249.099    -230.700     312.778
  H      251.000    -233.064     312.318
  H      250.068    -234.122     314.241
  H      249.849    -231.742     315.765
  H      252.229    -228.323     307.905
  H      252.424    -232.908     314.615
  H      253.795    -228.877     308.418
  H      252.347    -231.711     315.923
  P      247.703    -233.822     315.546
  C      245.901    -235.165     314.281
  O      247.125    -235.218     314.998
  O      246.774    -233.057     316.432
  O      249.001    -234.291     316.370
  H      248.799    -234.231     317.321
  H      245.625    -236.152     313.972
  H      246.019    -234.542     313.419
  H      245.136    -234.762     314.911

 6  7  8  9  10  11  12  13  14  15  16  26  30  31  32  33  35 0
 6-311+G(2d,p)
 ****
 37  38 0
 6-311+G(2d,p)
 ****
 1  2  3  4  5  17  18  19  20  21  22  23  24  25 0
 3-21G
 ****
 27  28  29  34  36  39  40  41  42  43  44  45  46 0
 3-21G
 ****


