%nproc=1
%NoSave
%Mem=1900MB
#P OB98/GEN NMR

erre ene a

0 1
  C      -67.159     347.476     -67.758
  O      -67.628     346.949     -66.528
  P      -68.734     347.718     -65.649
  C      -70.606     346.280     -66.727
  O      -70.105     347.585     -66.485
  C      -71.766     345.965     -65.774
  O      -72.801     346.964     -65.970
  C      -72.402     344.584     -65.981
  O      -72.804     344.103     -64.694
  C      -73.614     344.898     -66.843
  O      -74.615     343.893     -66.759
  C      -74.028     346.262     -66.272
  N      -74.860     347.028     -67.199
  C      -76.165     346.589     -67.418
  O      -76.596     345.572     -66.864
  N      -76.976     347.310     -68.264
  C      -76.491     348.332     -68.905
  N      -77.346     349.050     -69.680
  C      -75.085     348.764     -68.788
  C      -74.342     348.091     -67.912
  O      -68.374     349.112     -65.267
  O      -69.010     346.744     -64.414
  H      -74.904     343.823     -65.824
  H      -68.360     346.872     -63.675
  H      -74.718     349.608     -69.366
  H      -73.307     348.351     -67.742
  H      -74.560     346.130     -65.320
  H      -73.306     344.986     -67.890
  H      -71.713     343.868     -66.436
  H      -71.399     346.072     -64.744
  H      -78.331     348.827     -69.605
  H      -69.796     345.560     -66.545
  H      -77.137     350.009     -69.940
  H      -70.923     346.191     -67.773
  P      -72.897     342.516     -64.468
  C      -70.772     342.392     -62.983
  O      -71.420     341.973     -64.165
  O      -73.148     341.989     -65.967
  O      -73.993     342.033     -63.571
  H      -73.613     341.130     -65.931
  H      -69.785     341.919     -62.941
  H      -71.341     342.088     -62.103
  H      -70.636     343.478     -62.986
  H      -66.432     346.812     -68.176
  H      -66.712     348.433     -67.589
  H      -67.979     347.581     -68.437

 3  4  5  6  7  8  9  10  11  12  13  23  27  28  29  30  32 0
 6-311+G(2d,p)
 ****
 34  35 0
 6-311+G(2d,p)
 ****
 1  2  14  15  16  17  18  19  20  21  22  24  25  26 0
 3-21G
 ****
 31  33  36  37  38  39  40  41  42  43  44  45  46 0
 3-21G
 ****


