%nproc=1
%NoSave
%Mem=1900MB
#P OB98/GEN NMR

erre ene a

0 1
  C     -452.309     328.996     375.763
  O     -452.322     330.406     375.543
  P     -451.151     331.298     376.177
  C     -452.504     333.096     377.450
  O     -451.691     332.805     376.317
  C     -453.422     334.282     377.169
  O     -454.608     333.885     376.432
  C     -453.943     334.951     378.431
  O     -452.936     335.725     379.056
  C     -455.125     335.738     377.892
  O     -454.695     336.986     377.320
  C     -455.663     334.803     376.781
  N     -456.880     334.096     377.161
  C     -457.991     334.319     376.351
  O     -457.928     335.106     375.401
  N     -459.166     333.655     376.645
  C     -459.214     332.859     377.656
  N     -460.395     332.226     377.911
  C     -458.062     332.606     378.552
  C     -456.938     333.261     378.253
  O     -449.814     331.158     375.545
  O     -451.123     330.809     377.709
  H     -454.004     336.760     376.671
  H     -450.215     330.900     378.055
  H     -458.147     331.915     379.385
  H     -456.040     333.139     378.850
  H     -455.875     335.376     375.869
  H     -455.851     335.983     378.677
  H     -454.302     334.179     379.136
  H     -452.871     335.010     376.573
  H     -461.170     332.418     377.292
  H     -451.867     333.309     378.314
  H     -460.509     331.544     378.639
  H     -453.081     332.197     377.702
  P     -452.803     335.635     380.653
  C     -453.259     338.126     381.239
  O     -452.316     337.068     381.184
  O     -451.504     334.710     380.860
  O     -453.994     335.066     381.348
  H     -451.618     334.166     381.661
  H     -452.878     338.914     381.898
  H     -454.221     337.771     381.632
  H     -453.400     338.545     380.235
  H     -453.152     328.551     375.277
  H     -452.358     328.798     376.813
  H     -451.407     328.581     375.364

 3  4  5  6  7  8  9  10  11  12  13  23  27  28  29  30  32 0
 6-311+G(2d,p)
 ****
 34  35 0
 6-311+G(2d,p)
 ****
 1  2  14  15  16  17  18  19  20  21  22  24  25  26 0
 3-21G
 ****
 31  33  36  37  38  39  40  41  42  43  44  45  46 0
 3-21G
 ****


