%nproc=1
%NoSave
%Mem=1900MB
#P OB98/GEN NMR

erre ene a

0 1
  C      -32.270     185.746      27.275
  O      -31.215     185.199      26.512
  H      -32.319     186.820      27.086
  H      -32.085     185.589      28.340
  H      -33.227     185.297      26.996
  P      -31.051     183.606      26.450
  C      -32.456     183.219      24.322
  O      -32.363     183.033      25.729
  C      -33.605     182.385      23.764
  O      -33.355     180.981      23.982
  C      -34.954     182.671      24.414
  O      -35.497     183.888      23.939
  C      -35.729     181.424      24.016
  O      -36.210     181.529      22.668
  C      -34.638     180.332      24.131
  N      -34.704     179.583      25.385
  C      -35.038     178.236      25.285
  O      -35.309     177.691      24.217
  N      -35.071     177.539      26.464
  C      -34.887     178.067      27.709
  O      -34.981     177.408      28.741
  C      -34.572     179.501      27.756
  C      -34.495     180.181      26.612
  O      -30.700     182.938      27.738
  O      -29.912     183.389      25.345
  H      -36.811     182.299      22.645
  H      -29.058     183.217      25.782
  H      -35.324     176.566      26.411
  H      -34.426     179.954      28.729
  H      -34.267     181.243      26.627
  H      -34.727     179.620      23.303
  H      -36.602     181.252      24.647
  H      -34.853     182.687      25.505
  H      -33.653     182.552      22.680
  H      -31.514     182.897      23.863
  H      -32.610     184.281      24.114
  P      -36.739     184.573      24.678
  C      -35.441     185.432      26.712
  O      -36.444     184.533      26.258
  O      -38.080     184.053      24.285
  O      -36.593     186.126      24.323
  H      -37.267     186.379      23.664
  H      -35.321     185.328      27.770
  H      -35.732     186.436      26.483
  H      -34.515     185.209      26.225

 6  7  8  9  10  11  12  13  14  15  16  26  31  32  33  34  35 0
 6-311+G(2d,p)
 ****
 36  37 0
 6-311+G(2d,p)
 ****
 1  2  3  4  5  17  18  19  20  21  22  23  24  25 0
 3-21G
 ****
 27  28  29  30  38  39  40  41  42  43  44  45 0
 3-21G
 ****


