%nproc=1
%NoSave
%Mem=1900MB
#P OB98/GEN NMR

erre ene a

0 1
  C     -246.423     195.294    -318.229
  O     -247.060     195.028    -319.464
  H     -245.712     194.488    -318.023
  H     -247.164     195.323    -317.427
  H     -245.882     196.242    -318.274
  P     -248.017     196.181    -320.044
  C     -250.067     194.805    -320.939
  O     -248.859     195.489    -321.217
  C     -250.347     193.740    -322.003
  O     -250.746     194.404    -323.231
  C     -249.141     192.858    -322.322
  O     -249.607     191.535    -322.597
  C     -248.583     193.471    -323.593
  O     -247.803     192.540    -324.343
  C     -249.869     193.952    -324.285
  N     -249.618     195.005    -325.259
  C     -249.178     194.598    -326.529
  O     -249.013     193.403    -326.771
  N     -248.900     195.550    -327.474
  C     -248.988     196.806    -327.167
  N     -248.671     197.704    -328.140
  C     -249.399     197.287    -325.825
  C     -249.700     196.341    -324.943
  O     -246.974     197.111    -320.820
  O     -248.827     196.888    -319.009
  H     -247.311     191.969    -323.715
  H     -246.335     196.613    -321.356
  H     -249.447     198.346    -325.617
  H     -250.024     196.600    -323.938
  H     -250.364     193.116    -324.798
  H     -247.939     194.326    -323.350
  H     -248.413     192.826    -321.508
  H     -251.200     193.138    -321.674
  H     -248.376     197.331    -329.032
  H     -250.906     195.513    -320.900
  H     -248.648     198.705    -327.995
  H     -249.973     194.343    -319.949
  P     -249.482     190.402    -321.473
  C     -249.322     188.415    -323.129
  O     -250.047     189.014    -322.050
  O     -249.988     190.777    -320.119
  O     -247.897     190.132    -321.419
  H     -247.646     190.020    -320.482
  H     -249.800     187.502    -323.417
  H     -248.320     188.209    -322.815
  H     -249.303     189.086    -323.962

 6  7  8  9  10  11  12  13  14  15  16  26  30  31  32  33  35 0
 6-311+G(2d,p)
 ****
 37  38 0
 6-311+G(2d,p)
 ****
 1  2  3  4  5  17  18  19  20  21  22  23  24  25 0
 3-21G
 ****
 27  28  29  34  36  39  40  41  42  43  44  45  46 0
 3-21G
 ****


