%nproc=1
%NoSave
%Mem=1900MB
#P OB98/GEN NMR

erre ene a

0 1
  C      899.234     512.385    -559.003
  O      899.017     511.073    -559.537
  P      900.082     509.914    -559.221
  C      899.160     508.023    -560.774
  O      900.218     508.922    -560.473
  C      898.127     508.660    -561.713
  O      898.761     509.024    -562.972
  C      896.941     507.753    -562.054
  O      895.794     508.616    -562.225
  C      897.350     507.155    -563.388
  O      896.258     506.641    -564.131
  C      898.022     508.376    -564.030
  N      898.907     508.051    -565.146
  C      898.356     508.040    -566.430
  O      897.166     508.222    -566.675
  N      899.234     507.765    -567.452
  C      900.572     507.472    -567.318
  O      901.288     507.205    -568.270
  C      901.085     507.470    -565.943
  C      900.246     507.759    -564.944
  O      899.288     509.011    -558.162
  O      901.380     510.382    -558.631
  H      895.592     507.353    -564.201
  H      899.867     508.793    -557.412
  H      898.855     507.768    -568.378
  H      902.127     507.254    -565.803
  H      900.611     507.774    -563.923
  H      897.263     509.082    -564.367
  H      898.052     506.333    -563.215
  H      896.730     507.008    -561.288
  H      897.782     509.593    -561.248
  H      898.659     507.735    -559.832
  H      899.579     507.115    -561.225
  P      894.641     508.580    -561.102
  C      894.112     511.078    -560.534
  O      893.788     509.924    -561.270
  O      895.516     508.879    -559.790
  O      893.881     507.304    -561.030
  H      896.160     509.599    -559.919
  H      895.192     511.237    -560.486
  H      893.708     511.000    -559.533
  H      893.665     511.945    -561.029
  H      898.436     513.030    -559.307
  H      900.163     512.770    -559.369
  H      899.264     512.335    -557.935

 3  4  5  6  7  8  9  10  11  12  13  23  28  29  30  31  32 0
 6-311+G(2d,p)
 ****
 33  34 0
 6-311+G(2d,p)
 ****
 1  2  14  15  16  17  18  19  20  21  22  24  25  26 0
 3-21G
 ****
 27  35  36  37  38  39  40  41  42  43  44  45 0
 3-21G
 ****


