%nproc=1
%NoSave
%Mem=1900MB
#P OB98/GEN NMR

erre ene a

0 1
  C       95.030     134.915    -286.403
  O       94.747     134.547    -285.068
  H       94.490     134.255    -287.087
  H       94.687     135.942    -286.565
  H       96.103     134.866    -286.603
  P       95.424     133.199    -284.520
  C       97.906     133.828    -284.078
  O       96.607     133.659    -283.530
  C       98.947     133.919    -282.964
  O      100.269     133.765    -283.555
  C       98.932     135.245    -282.186
  O       99.181     134.962    -280.806
  C      100.118     135.996    -282.759
  O      100.648     136.959    -281.852
  C      101.078     134.853    -283.069
  N      105.721     136.849    -283.623
  C      105.094     136.303    -282.558
  N      103.869     135.742    -282.512
  C      103.311     135.715    -283.733
  C      103.828     136.224    -284.910
  C      105.094     136.831    -284.824
  N      105.713     137.450    -285.887
  N      102.929     136.055    -285.945
  C      101.877     135.483    -285.394
  N      102.060     135.258    -284.060
  O       96.207     132.660    -285.811
  O       94.485     132.183    -283.970
  H      100.742     136.546    -280.973
  H       95.612     132.103    -286.345
  H      105.645     136.333    -281.622
  H      100.955     135.237    -285.903
  H      101.624     134.506    -282.182
  H       99.814     136.517    -283.676
  H       97.993     135.802    -282.286
  H       98.801     133.070    -282.283
  H       97.930     134.757    -284.660
  H      106.565     137.952    -285.704
  H      105.208     137.544    -286.758
  H       98.131     132.989    -284.745
  P       98.112     135.501    -279.737
  C       96.242     133.793    -280.337
  O       97.130     134.296    -279.347
  O       97.182     136.473    -280.606
  O       98.723     136.219    -278.577
  H       96.861     137.212    -280.059
  H       95.659     132.997    -279.922
  H       96.806     133.426    -281.169
  H       95.593     134.577    -280.665

 6  7  8  9  10  11  12  13  14  15  25  28  32  33  34  35 0
 6-311+G(2d,p)
 ****
 36  39  40 0
 6-311+G(2d,p)
 ****
 1  2  3  4  5  16  17  18  19  20  21  22  23  24 0
 3-21G
 ****
 26  27  29  30  31  37  38  41  42  43  44  45  46  47 0
 3-21G
 ****
 48 0
 3-21G
 ****


