%nproc=1
%NoSave
%Mem=1900MB
#P OB98/GEN NMR

erre ene a

0 1
  C     -191.422     278.702    -241.316
  O     -191.239     279.678    -240.307
  H     -192.174     279.067    -242.022
  H     -191.778     277.765    -240.883
  H     -190.487     278.531    -241.857
  P     -190.182     279.371    -239.142
  C     -190.891     281.340    -237.625
  O     -190.845     279.928    -237.792
  C     -192.322     281.788    -237.356
  O     -193.118     281.674    -238.552
  C     -193.037     280.971    -236.279
  O     -192.662     281.423    -234.988
  C     -194.487     281.276    -236.624
  O     -194.830     282.594    -236.154
  C     -194.452     281.247    -238.164
  N     -197.681     277.348    -238.401
  C     -197.729     278.497    -237.627
  N     -198.764     278.592    -236.765
  N     -196.831     279.442    -237.681
  C     -195.819     279.176    -238.537
  C     -195.656     278.070    -239.343
  C     -196.681     277.053    -239.315
  O     -196.690     276.030    -239.997
  N     -194.468     278.121    -240.032
  C     -193.935     279.273    -239.669
  N     -194.711     279.944    -238.754
  O     -188.783     279.858    -239.372
  O     -190.249     277.784    -238.962
  H     -194.646     282.603    -235.195
  H     -189.579     277.339    -239.511
  H     -198.395     276.646    -238.298
  H     -192.997     279.665    -240.039
  H     -195.164     281.950    -238.605
  H     -195.189     280.575    -236.172
  H     -199.304     277.783    -236.486
  H     -192.867     279.898    -236.409
  H     -198.789     279.398    -236.152
  H     -192.296     282.851    -237.086
  H     -190.511     281.791    -238.546
  H     -190.248     281.643    -236.791
  P     -192.607     280.408    -233.743
  C     -193.050     282.418    -232.183
  O     -193.460     281.121    -232.587
  O     -191.232     279.984    -233.338
  O     -193.554     279.191    -234.171
  H     -193.083     278.483    -234.672
  H     -193.701     282.774    -231.411
  H     -193.093     283.083    -233.020
  H     -192.047     282.376    -231.812

 6  7  8  9  10  11  12  13  14  15  26  29  33  34 0
 6-311+G(2d,p)
 ****
 36  38  39  40  41 0
 6-311+G(2d,p)
 ****
 1  2  3  4  5  16  17  18  19  20  21  22  23  24  25 0
 3-21G
 ****
 27  28  30  31  32  35  37  42  43  44  45  46  47 0
 3-21G
 ****
 48  49 0
 3-21G
 ****


