%nproc=1
%NoSave
%Mem=1900MB
#P OB98/GEN NMR

erre ene a

0 1
  C       96.506     333.925     584.453
  O       96.481     334.211     583.067
  H       96.868     334.810     584.989
  H       97.180     333.088     584.661
  H       95.499     333.691     584.814
  P       95.990     333.061     582.065
  C       98.263     332.132     581.249
  O       97.128     331.932     582.093
  C       98.845     330.792     580.825
  O       99.358     330.081     581.972
  C       97.833     329.858     580.153
  O       97.660     330.214     578.794
  C       98.516     328.514     580.341
  O       99.591     328.386     579.399
  C       99.087     328.663     581.770
  N       97.575     324.708     584.576
  C       98.490     324.760     583.537
  N       99.041     323.588     583.158
  N       98.811     325.867     582.901
  C       98.121     326.944     583.344
  C       97.182     327.014     584.352
  C       96.879     325.800     585.074
  O       96.094     325.706     586.016
  N       96.652     328.274     584.466
  C       97.295     328.990     583.551
  N       98.189     328.219     582.828
  O       95.613     333.506     580.683
  O       94.768     332.374     582.834
  H       99.190     328.342     578.511
  H       93.918     332.780     582.581
  H       97.362     323.822     585.005
  H       97.156     330.043     583.371
  H      100.030     328.120     581.904
  H       97.850     327.669     580.211
  H       98.636     322.696     583.405
  H       96.871     329.848     580.697
  H       99.676     323.601     582.366
  H       99.699     330.986     580.162
  H       98.996     332.705     581.833
  H       97.983     332.716     580.367
  P       96.190     330.238     578.113
  C       95.924     327.812     577.236
  O       95.641     328.741     578.287
  O       96.158     330.765     576.725
  O       95.289     331.062     579.147
  H       95.298     332.036     578.992
  H       95.503     326.859     577.480
  H       96.983     327.715     577.121
  H       95.497     328.167     576.321

 6  7  8  9  10  11  12  13  14  15  26  29  33  34 0
 6-311+G(2d,p)
 ****
 36  38  39  40  41 0
 6-311+G(2d,p)
 ****
 1  2  3  4  5  16  17  18  19  20  21  22  23  24  25 0
 3-21G
 ****
 27  28  30  31  32  35  37  42  43  44  45  46  47 0
 3-21G
 ****
 48  49 0
 3-21G
 ****


