%nproc=1
%NoSave
%Mem=1900MB
#P OB98/GEN NMR

erre ene a

0 1
  C     -382.319     803.697     -24.948
  O     -383.069     803.751     -23.753
  H     -382.238     804.703     -25.358
  H     -382.827     803.062     -25.683
  H     -381.312     803.313     -24.763
  P     -383.181     802.432     -22.853
  C     -385.511     803.350     -22.217
  O     -384.323     802.712     -21.762
  C     -386.411     803.729     -21.030
  O     -386.678     802.525     -20.250
  C     -385.794     804.760     -20.074
  O     -386.872     805.514     -19.502
  C     -385.150     803.846     -19.042
  O     -384.738     804.538     -17.891
  C     -386.271     802.815     -18.893
  N     -385.912     801.593     -18.192
  C     -386.698     801.205     -17.111
  O     -387.685     801.820     -16.714
  N     -386.317     800.056     -16.476
  C     -385.261     799.266     -16.811
  O     -384.981     798.227     -16.220
  C     -384.458     799.726     -17.953
  C     -384.816     800.846     -18.583
  O     -381.898     801.908     -22.298
  O     -383.878     801.368     -23.830
  H     -383.204     800.750     -24.179
  H     -384.102     805.245     -18.147
  H     -386.881     799.759     -15.692
  H     -383.604     799.128     -18.241
  H     -384.250     801.208     -19.436
  H     -387.138     803.267     -18.395
  H     -384.251     803.388     -19.457
  H     -385.096     805.443     -20.567
  H     -387.376     804.078     -21.421
  H     -386.040     802.653     -22.876
  H     -385.242     804.244     -22.786
  P     -387.453     806.864     -20.152
  C     -387.755     808.263     -17.994
  O     -388.391     807.577     -19.065
  O     -388.109     806.665     -21.480
  O     -386.191     807.843     -20.275
  H     -386.342     808.480     -21.002
  H     -388.498     808.687     -17.351
  H     -387.137     809.043     -18.387
  H     -387.152     807.576     -17.438

 6  7  8  9  10  11  12  13  14  15  16  27  31  32  33  34  35 0
 6-311+G(2d,p)
 ****
 36  37 0
 6-311+G(2d,p)
 ****
 1  2  3  4  5  17  18  19  20  21  22  23  24  25 0
 3-21G
 ****
 26  28  29  30  38  39  40  41  42  43  44  45 0
 3-21G
 ****


