%nproc=1
%NoSave
%Mem=1900MB
#P OB98/GEN NMR

erre ene a

0 1
  C     -215.982     112.732     180.088
  O     -216.142     111.821     179.020
  H     -215.011     113.223     179.987
  H     -216.012     112.205     181.048
  H     -216.768     113.490     180.054
  P     -217.488     110.949     179.015
  C     -217.825     110.823     176.462
  O     -217.427     110.126     177.637
  C     -216.651     111.617     175.890
  O     -215.475     110.768     175.892
  C     -216.877     112.090     174.449
  O     -216.269     113.371     174.277
  C     -216.119     111.063     173.626
  O     -215.750     111.561     172.343
  C     -214.946     110.748     174.555
  N     -210.554     108.188     174.298
  C     -210.861     109.408     174.786
  N     -212.072     110.006     174.836
  C     -213.026     109.183     174.364
  C     -212.865     107.916     173.834
  C     -211.550     107.419     173.802
  N     -211.219     106.192     173.277
  N     -214.079     107.413     173.413
  C     -214.959     108.356     173.694
  N     -214.364     109.453     174.250
  O     -218.750     111.711     179.244
  O     -217.159     109.823     180.104
  H     -215.502     110.802     171.775
  H     -216.269     109.446     179.969
  H     -210.029     109.985     175.180
  H     -216.026     108.301     173.499
  H     -214.142     111.491     174.487
  H     -216.741     110.173     173.473
  H     -217.930     112.139     174.173
  H     -216.437     112.461     176.556
  H     -218.653     111.504     176.692
  H     -210.251     105.912     173.294
  H     -211.946     105.599     172.906
  H     -218.176     110.084     175.735
  P     -217.197     114.678     174.277
  C     -215.358     116.478     174.383
  O     -216.384     115.887     173.600
  O     -217.850     115.009     175.578
  O     -218.292     114.333     173.157
  H     -219.174     114.625     173.470
  H     -214.894     117.265     173.827
  H     -214.627     115.737     174.631
  H     -215.780     116.877     175.282

 6  7  8  9  10  11  12  13  14  15  25  28  32  33  34  35 0
 6-311+G(2d,p)
 ****
 36  39  40 0
 6-311+G(2d,p)
 ****
 1  2  3  4  5  16  17  18  19  20  21  22  23  24 0
 3-21G
 ****
 26  27  29  30  31  37  38  41  42  43  44  45  46  47 0
 3-21G
 ****
 48 0
 3-21G
 ****


