%nproc=1
%NoSave
%Mem=1900MB
#P OB98/GEN NMR

erre ene a

0 1
  C      117.070    -103.048     -41.680
  O      116.899    -101.868     -42.436
  H      116.255    -103.117     -40.953
  H      118.018    -103.016     -41.137
  H      117.040    -103.931     -42.323
  P      117.867    -101.608     -43.687
  C      120.387    -101.206     -44.049
  O      119.354    -101.468     -43.106
  C      121.545    -100.485     -43.364
  O      121.118     -99.181     -42.913
  C      122.061    -101.196     -42.119
  O      122.846    -102.325     -42.451
  C      122.810    -100.066     -41.435
  O      124.119     -99.900     -41.993
  C      121.920     -98.846     -41.759
  N      121.080     -98.463     -40.625
  C      121.400     -97.262     -40.000
  O      122.322     -96.534     -40.360
  N      120.655     -96.950     -38.894
  C      119.745     -97.769     -38.291
  O      119.285     -97.558     -37.173
  C      119.403     -98.995     -39.029
  C      120.084     -99.288     -40.138
  O      117.443    -100.520     -44.617
  O      117.908    -103.027     -44.431
  H      117.324    -102.996     -45.213
  H      124.545     -99.191     -41.467
  H      120.910     -96.099     -38.411
  H      118.633     -99.637     -38.620
  H      119.876    -100.204     -40.683
  H      122.539     -97.985     -42.041
  H      122.926    -100.251     -40.366
  H      121.217    -101.496     -41.487
  H      122.350    -100.348     -44.097
  H      119.983    -100.571     -44.845
  H      120.721    -102.154     -44.484
  P      122.711    -103.680     -41.610
  C      123.569    -104.641     -39.386
  O      123.654    -103.567     -40.318
  O      122.876    -104.937     -42.397
  O      121.240    -103.598     -40.979
  H      120.773    -104.437     -41.161
  H      124.237    -104.459     -38.570
  H      123.838    -105.556     -39.871
  H      122.567    -104.714     -39.017

 6  7  8  9  10  11  12  13  14  15  16  27  31  32  33  34  35 0
 6-311+G(2d,p)
 ****
 36  37 0
 6-311+G(2d,p)
 ****
 1  2  3  4  5  17  18  19  20  21  22  23  24  25 0
 3-21G
 ****
 26  28  29  30  38  39  40  41  42  43  44  45 0
 3-21G
 ****


