%nproc=1
%NoSave
%Mem=1900MB
#P OB98/GEN NMR

erre ene a

0 1
  C     1065.213     155.200    -523.763
  O     1064.889     153.891    -524.184
  H     1064.759     155.933    -524.438
  H     1064.805     155.356    -522.755
  H     1066.293     155.342    -523.729
  P     1065.404     153.456    -525.646
  C     1063.809     151.401    -525.607
  O     1064.220     152.592    -526.290
  C     1062.542     150.846    -526.268
  O     1061.489     151.822    -526.229
  C     1062.705     150.481    -527.743
  O     1063.327     149.211    -527.915
  C     1061.258     150.476    -528.194
  O     1060.630     149.240    -527.753
  C     1060.686     151.676    -527.438
  N     1058.087     154.675    -530.673
  C     1057.803     153.488    -530.106
  N     1058.535     152.760    -529.253
  C     1059.710     153.350    -528.996
  C     1060.163     154.570    -529.505
  C     1059.288     155.245    -530.387
  N     1059.611     156.454    -530.964
  N     1061.433     154.855    -529.056
  C     1061.724     153.840    -528.250
  N     1060.724     152.898    -528.194
  O     1066.539     152.351    -525.332
  O     1065.918     154.561    -526.514
  H     1060.703     149.225    -526.780
  H     1067.120     152.253    -526.102
  H     1056.815     153.063    -530.361
  H     1062.654     153.740    -527.703
  H     1059.644     151.511    -527.124
  H     1061.143     150.516    -529.280
  H     1063.252     151.270    -528.300
  H     1062.220     149.964    -525.683
  H     1063.592     151.640    -524.568
  H     1058.991     156.768    -531.713
  H     1060.538     156.804    -530.878
  H     1064.618     150.659    -525.655
  P     1064.742     149.179    -528.678
  C     1064.522     146.640    -529.231
  O     1064.649     147.968    -529.735
  O     1065.743     148.612    -527.558
  O     1065.198     150.490    -529.229
  H     1066.655     148.930    -527.719
  H     1064.472     145.951    -530.049
  H     1063.629     146.564    -528.646
  H     1065.369     146.408    -528.620

 6  7  8  9  10  11  12  13  14  15  25  28  32  33  34  35 0
 6-311+G(2d,p)
 ****
 36  39  40 0
 6-311+G(2d,p)
 ****
 1  2  3  4  5  16  17  18  19  20  21  22  23  24 0
 3-21G
 ****
 26  27  29  30  31  37  38  41  42  43  44  45  46  47 0
 3-21G
 ****
 48 0
 3-21G
 ****


