%nproc=1
%NoSave
%Mem=1900MB
#P OB98/GEN NMR

erre ene a

0 1
  C       48.235     -39.229    -799.514
  O       48.698     -38.968    -798.203
  H       47.142     -39.262    -799.516
  H       48.559     -38.418    -800.171
  H       48.642     -40.170    -799.892
  P       48.600     -40.166    -797.138
  C       49.198     -42.692    -797.196
  O       49.373     -41.416    -797.792
  C       50.261     -43.669    -797.695
  O       50.167     -43.754    -799.145
  C       51.707     -43.267    -797.343
  O       52.444     -44.453    -797.012
  C       52.241     -42.702    -798.655
  O       53.655     -42.792    -798.756
  C       51.495     -43.554    -799.676
  N       54.390     -42.063    -803.578
  C       54.628     -42.921    -802.561
  N       53.770     -43.310    -801.584
  C       52.555     -42.765    -801.776
  C       52.165     -41.878    -802.765
  C       53.162     -41.506    -803.695
  N       52.954     -40.588    -804.695
  N       50.846     -41.503    -802.587
  C       50.457     -42.128    -801.494
  N       51.454     -42.896    -800.964
  O       47.052     -40.586    -797.236
  O       48.999     -39.821    -795.741
  H       53.957     -42.238    -799.503
  H       46.530     -40.039    -796.621
  H       55.625     -43.347    -802.518
  H       49.486     -42.031    -801.031
  H       51.958     -44.540    -799.815
  H       51.948     -41.646    -798.741
  H       51.779     -42.545    -796.518
  H       50.037     -44.666    -797.297
  H       48.208     -43.078    -797.461
  H       53.755     -40.304    -805.241
  H       52.081     -40.082    -804.726
  H       49.254     -42.591    -796.104
  P       52.525     -44.859    -795.463
  C       51.189     -46.365    -793.810
  O       51.376     -45.937    -795.156
  O       52.013     -43.545    -794.709
  O       53.900     -45.252    -795.014
  H       52.463     -43.446    -793.851
  H       50.393     -47.078    -793.770
  H       50.944     -45.522    -793.198
  H       52.090     -46.816    -793.451

 6  7  8  9  10  11  12  13  14  15  25  28  32  33  34  35 0
 6-311+G(2d,p)
 ****
 36  39  40 0
 6-311+G(2d,p)
 ****
 1  2  3  4  5  16  17  18  19  20  21  22  23  24 0
 3-21G
 ****
 26  27  29  30  31  37  38  41  42  43  44  45  46  47 0
 3-21G
 ****
 48 0
 3-21G
 ****


