%nproc=1
%NoSave
%Mem=1900MB
#P OB98/GEN NMR

erre ene a

0 1
  C      -84.816    -271.338     -14.348
  O      -83.960    -272.349     -13.855
  H      -84.292    -270.379     -14.383
  H      -85.130    -271.607     -15.360
  H      -85.702    -271.256     -13.713
  P      -83.304    -272.087     -12.415
  C      -83.345    -274.661     -12.125
  O      -82.600    -273.462     -11.979
  C      -82.657    -275.802     -11.386
  O      -82.213    -275.359     -10.086
  C      -83.541    -277.012     -11.116
  O      -83.680    -277.837     -12.265
  C      -82.741    -277.708     -10.024
  O      -81.665    -278.460     -10.616
  C      -82.175    -276.525      -9.224
  N      -81.950    -276.220      -4.102
  C      -81.019    -276.542      -5.029
  N      -81.151    -276.613      -6.368
  C      -82.400    -276.293      -6.741
  C      -83.454    -275.942      -5.913
  C      -83.195    -275.918      -4.533
  N      -84.157    -275.604      -3.597
  N      -84.583    -275.666      -6.654
  C      -84.222    -275.845      -7.907
  N      -82.911    -276.231      -8.012
  O      -84.571    -271.994     -11.438
  O      -82.447    -270.868     -12.316
  H      -81.238    -278.955      -9.890
  H      -84.388    -271.333     -10.744
  H      -80.029    -276.770      -4.639
  H      -84.867    -275.702      -8.764
  H      -81.125    -276.687      -8.955
  H      -83.337    -278.403      -9.430
  H      -84.516    -276.712     -10.716
  H      -81.768    -276.090     -11.963
  H      -83.420    -274.916     -13.188
  H      -83.867    -275.412      -2.653
  H      -85.087    -275.372      -3.930
  H      -84.353    -274.501     -11.727
  P      -85.150    -278.383     -12.611
  C      -84.292    -278.584     -15.051
  O      -84.994    -279.205     -13.979
  O      -85.931    -277.061     -13.063
  O      -85.845    -279.083     -11.493
  H      -86.890    -277.174     -12.915
  H      -84.268    -279.245     -15.892
  H      -83.292    -278.363     -14.742
  H      -84.789    -277.677     -15.325

 6  7  8  9  10  11  12  13  14  15  25  28  32  33  34  35 0
 6-311+G(2d,p)
 ****
 36  39  40 0
 6-311+G(2d,p)
 ****
 1  2  3  4  5  16  17  18  19  20  21  22  23  24 0
 3-21G
 ****
 26  27  29  30  31  37  38  41  42  43  44  45  46  47  48 0
 3-21G
 ****


