%nproc=1
%NoSave
%Mem=1900MB
#P OB98/GEN NMR

erre ene a

0 1
  C      -87.392    -729.853    1039.703
  O      -88.581    -730.235    1040.367
  H      -86.660    -730.661    1039.798
  H      -86.978    -728.951    1040.167
  H      -87.583    -729.670    1038.641
  P      -89.842    -729.260    1040.207
  C      -90.503    -730.357    1037.907
  O      -90.182    -729.172    1038.635
  C      -91.512    -730.032    1036.806
  O      -92.792    -729.677    1037.355
  C      -91.132    -728.834    1035.960
  O      -90.042    -729.092    1035.098
  C      -92.444    -728.583    1035.231
  O      -92.620    -729.495    1034.141
  C      -93.474    -728.876    1036.360
  N      -94.035    -727.656    1036.922
  C      -95.427    -727.624    1037.045
  O      -96.107    -728.589    1036.693
  N      -96.020    -726.487    1037.532
  C      -95.285    -725.480    1037.891
  N      -95.931    -724.376    1038.360
  C      -93.805    -725.483    1037.808
  C      -93.258    -726.596    1037.320
  O      -89.215    -727.821    1040.513
  O      -91.027    -729.608    1041.043
  H      -93.487    -729.308    1033.755
  H      -88.437    -727.615    1039.971
  H      -93.238    -724.627    1038.146
  H      -92.182    -726.676    1037.220
  H      -94.302    -729.484    1035.980
  H      -92.505    -727.574    1034.816
  H      -90.919    -727.963    1036.595
  H      -91.639    -730.944    1036.198
  H      -96.938    -724.399    1038.382
  H      -90.887    -731.135    1038.578
  H      -95.464    -723.522    1038.644
  H      -89.570    -730.739    1037.472
  P      -89.158    -727.883    1034.528
  C      -86.987    -728.292    1035.841
  O      -88.139    -727.466    1035.694
  O      -89.928    -726.753    1033.934
  O      -88.189    -728.613    1033.483
  H      -87.613    -729.304    1033.864
  H      -86.383    -727.922    1036.643
  H      -86.421    -728.280    1034.933
  H      -87.292    -729.294    1036.057

 6  7  8  9  10  11  12  13  14  15  16  26  30  31  32  33  35 0
 6-311+G(2d,p)
 ****
 37  38 0
 6-311+G(2d,p)
 ****
 1  2  3  4  5  17  18  19  20  21  22  23  24  25 0
 3-21G
 ****
 27  28  29  34  36  39  40  41  42  43  44  45  46 0
 3-21G
 ****


