%nproc=1
%NoSave
%Mem=1900MB
#P OB98/GEN NMR

erre ene a

0 1
  C     -394.874    -185.484    1018.373
  O     -393.909    -184.899    1019.214
  H     -395.361    -184.690    1017.804
  H     -395.629    -185.999    1018.972
  H     -394.415    -186.186    1017.676
  P     -392.845    -185.852    1019.956
  C     -391.286    -183.790    1020.051
  O     -391.859    -184.882    1020.772
  C     -391.360    -182.498    1020.872
  O     -392.744    -182.274    1021.280
  C     -390.503    -182.528    1022.145
  O     -390.070    -181.175    1022.396
  C     -391.518    -182.955    1023.195
  O     -391.067    -182.658    1024.493
  C     -392.758    -182.190    1022.714
  N     -393.997    -182.724    1023.284
  C     -394.917    -181.786    1023.751
  O     -394.706    -180.562    1023.747
  N     -396.065    -182.296    1024.294
  C     -396.354    -183.617    1024.453
  O     -397.383    -184.023    1024.973
  C     -395.331    -184.558    1023.978
  C     -394.218    -184.081    1023.430
  O     -392.159    -186.853    1019.087
  O     -393.682    -186.555    1021.128
  H     -390.555    -183.417    1024.857
  H     -393.323    -187.441    1021.313
  H     -396.749    -181.631    1024.635
  H     -395.517    -185.617    1024.099
  H     -393.439    -184.753    1023.068
  H     -392.695    -181.129    1022.992
  H     -391.695    -184.043    1023.143
  H     -389.641    -183.196    1022.079
  H     -391.078    -181.656    1020.211
  H     -391.857    -183.674    1019.121
  H     -390.246    -184.023    1019.802
  P     -388.530    -180.740    1022.263
  C     -389.486    -178.773    1020.881
  O     -388.475    -179.193    1021.791
  O     -387.698    -181.666    1021.432
  O     -387.987    -180.682    1023.764
  H     -387.024    -180.868    1023.770
  H     -389.346    -177.739    1020.644
  H     -390.448    -178.909    1021.329
  H     -389.424    -179.355    1019.985

 6  7  8  9  10  11  12  13  14  15  16  26  31  32  33  34  35 0
 6-311+G(2d,p)
 ****
 36  37 0
 6-311+G(2d,p)
 ****
 1  2  3  4  5  17  18  19  20  21  22  23  24  25 0
 3-21G
 ****
 27  28  29  30  38  39  40  41  42  43  44  45 0
 3-21G
 ****


