%nproc=1
%NoSave
%Mem=1900MB
#P OB98/GEN NMR

erre ene a

0 1
  C     -451.319    -212.408     -45.633
  O     -451.555    -213.100     -44.423
  H     -450.419    -212.814     -46.102
  H     -451.165    -211.344     -45.441
  H     -452.162    -212.545     -46.315
  P     -452.777    -212.587     -43.522
  C     -450.982    -211.305     -42.145
  O     -452.269    -211.276     -42.752
  C     -450.264    -209.983     -42.409
  O     -450.307    -209.676     -43.823
  C     -450.898    -208.785     -41.717
  O     -450.552    -208.699     -40.345
  C     -450.316    -207.643     -42.532
  O     -449.012    -207.264     -42.065
  C     -450.246    -208.241     -43.950
  N     -451.309    -207.721     -44.808
  C     -451.214    -206.367     -45.125
  O     -450.308    -205.639     -44.724
  N     -452.228    -205.867     -45.894
  C     -453.323    -206.557     -46.326
  O     -454.227    -206.030     -46.966
  C     -453.377    -207.976     -45.947
  C     -452.382    -208.487     -45.213
  O     -452.871    -213.695     -42.370
  O     -454.071    -212.425     -44.249
  H     -453.649    -214.263     -42.523
  H     -448.654    -206.649     -42.736
  H     -452.180    -204.889     -46.139
  H     -454.233    -208.555     -46.271
  H     -452.404    -209.528     -44.911
  H     -449.283    -208.008     -44.416
  H     -450.947    -206.761     -42.473
  H     -451.987    -208.801     -41.852
  H     -449.214    -210.091     -42.110
  H     -450.391    -212.118     -42.574
  H     -451.098    -211.483     -41.072
  P     -451.658    -209.141     -39.268
  C     -451.416    -206.780     -38.131
  O     -452.263    -207.779     -38.677
  O     -450.720    -209.711     -38.103
  O     -452.652    -210.112     -39.813
  H     -449.841    -209.293     -38.107
  H     -452.009    -205.956     -37.793
  H     -450.732    -206.443     -38.882
  H     -450.869    -207.188     -37.307

 6  7  8  9  10  11  12  13  14  15  16  27  31  32  33  34  35 0
 6-311+G(2d,p)
 ****
 36  37 0
 6-311+G(2d,p)
 ****
 1  2  3  4  5  17  18  19  20  21  22  23  24  25 0
 3-21G
 ****
 26  28  29  30  38  39  40  41  42  43  44  45 0
 3-21G
 ****


