%nproc=1
%NoSave
%Mem=1900MB
#P OB98/GEN NMR

erre ene a

0 1
  C      212.206     862.234     414.863
  O      211.864     863.203     413.895
  H      211.815     862.552     415.832
  H      213.294     862.147     414.933
  H      211.769     861.263     414.607
  P      212.165     862.831     412.364
  C      210.318     864.452     411.520
  O      211.694     864.093     411.487
  C      210.181     865.961     411.707
  O      210.762     866.371     412.966
  C      210.866     866.796     410.623
  O      210.060     866.918     409.464
  C      211.001     868.123     411.350
  O      209.726     868.806     411.352
  C      211.366     867.688     412.768
  N      214.997     867.776     416.310
  C      213.627     867.942     416.438
  N      213.161     868.161     417.679
  N      212.791     867.888     415.430
  C      213.402     867.666     414.237
  C      214.751     867.496     413.986
  C      215.662     867.540     415.112
  O      216.877     867.388     415.055
  N      214.988     867.285     412.662
  C      213.789     867.343     412.093
  N      212.799     867.581     413.011
  O      211.063     861.719     412.025
  O      213.546     862.329     412.084
  H      209.092     868.219     411.789
  H      211.450     861.060     411.420
  H      215.593     867.836     417.113
  H      213.599     867.225     411.039
  H      210.965     868.353     413.539
  H      211.723     868.793     410.870
  H      213.751     868.262     418.486
  H      211.866     866.405     410.395
  H      212.153     868.241     417.794
  H      209.110     866.195     411.751
  H      209.844     863.938     412.361
  H      209.842     864.141     410.591
  P      210.733     867.573     408.160
  C      208.858     866.350     406.844
  O      209.590     867.553     407.027
  O      211.756     866.437     407.683
  O      211.416     868.873     408.388
  H      212.461     866.834     407.133
  H      208.139     866.485     406.064
  H      208.354     866.097     407.753
  H      209.530     865.561     406.577

 6  7  8  9  10  11  12  13  14  15  26  29  33  34 0
 6-311+G(2d,p)
 ****
 36  38  39  40  41 0
 6-311+G(2d,p)
 ****
 1  2  3  4  5  16  17  18  19  20  21  22  23  24  25 0
 3-21G
 ****
 27  28  30  31  32  35  37  42  43  44  45  46  47 0
 3-21G
 ****
 48  49 0
 3-21G
 ****


