%nproc=1
%NoSave
%Mem=1900MB
#P OB98/GEN NMR

erre ene a

0 1
  C     -279.048     815.107     446.439
  O     -278.898     815.790     445.212
  H     -278.170     814.477     446.598
  H     -279.934     814.465     446.396
  H     -279.139     815.802     447.274
  P     -279.877     817.010     444.883
  C     -279.001     818.838     446.483
  O     -279.051     818.360     445.145
  C     -278.118     820.091     446.581
  O     -278.163     820.594     447.943
  C     -276.651     819.769     446.269
  O     -275.958     820.892     445.738
  C     -276.079     819.439     447.642
  O     -274.666     819.606     447.715
  C     -276.866     820.406     448.535
  N     -274.767     820.061     453.165
  C     -274.191     820.460     451.976
  N     -272.882     820.815     452.031
  N     -274.824     820.482     450.832
  C     -276.105     820.034     450.925
  C     -276.781     819.594     452.037
  C     -276.067     819.607     453.305
  O     -276.526     819.244     454.380
  N     -278.061     819.213     451.733
  C     -278.164     819.411     450.430
  N     -277.009     819.936     449.898
  O     -280.919     817.000     446.103
  O     -280.581     816.939     443.563
  H     -274.399     819.418     448.635
  H     -281.743     817.452     445.851
  H     -274.238     820.085     454.021
  H     -279.042     819.213     449.838
  H     -276.369     821.385     448.572
  H     -276.298     818.389     447.864
  H     -272.314     820.618     452.834
  H     -276.541     818.931     445.592
  H     -272.373     820.800     451.140
  H     -278.519     820.886     445.936
  H     -278.590     818.031     447.094
  H     -280.009     819.046     446.851
  P     -276.034     821.168     444.161
  C     -278.420     822.152     443.553
  O     -277.060     822.365     443.872
  O     -276.782     819.878     443.590
  O     -274.712     821.389     443.503
  H     -276.187     819.375     443.003
  H     -278.903     823.095     443.403
  H     -278.897     821.630     444.356
  H     -278.489     821.570     442.658

 6  7  8  9  10  11  12  13  14  15  26  29  33  34 0
 6-311+G(2d,p)
 ****
 36  38  39  40  41 0
 6-311+G(2d,p)
 ****
 1  2  3  4  5  16  17  18  19  20  21  22  23  24  25 0
 3-21G
 ****
 27  28  30  31  32  35  37  42  43  44  45  46  47 0
 3-21G
 ****
 48  49 0
 3-21G
 ****


