%nproc=1
%NoSave
%Mem=1900MB
#P OB98/GEN NMR

erre ene a

0 1
  C      -49.169     314.639    -110.906
  O      -48.657     314.990    -109.618
  P      -48.045     313.848    -108.677
  C      -48.832     312.462    -106.640
  O      -49.215     313.203    -107.793
  C      -50.028     311.666    -106.107
  O      -51.073     312.542    -105.618
  C      -50.701     310.820    -107.179
  O      -49.977     309.710    -107.665
  C      -52.066     310.547    -106.566
  O      -52.022     309.450    -105.654
  C      -52.337     311.870    -105.811
  N      -53.295     312.730    -106.505
  C      -54.605     312.262    -106.564
  O      -54.954     311.176    -106.110
  N      -55.500     313.077    -107.202
  C      -55.214     314.269    -107.802
  O      -56.051     314.949    -108.381
  C      -53.808     314.700    -107.728
  C      -52.927     313.924    -107.092
  O      -46.813     314.225    -107.924
  O      -47.717     312.671    -109.720
  H      -51.537     309.748    -104.862
  H      -46.858     312.280    -109.470
  H      -56.455     312.759    -107.248
  H      -53.543     315.637    -108.197
  H      -51.886     314.222    -107.026
  H      -52.736     311.663    -104.809
  H      -52.810     310.300    -107.330
  H      -50.876     311.464    -108.055
  H      -49.692     311.055    -105.268
  H      -48.457     313.141    -105.872
  H      -48.000     311.801    -106.903
  P      -49.697     309.455    -109.222
  C      -51.071     309.629    -111.414
  O      -51.093     309.541    -110.007
  O      -48.781     308.334    -109.581
  O      -48.998     310.839    -109.650
  H      -48.347     310.651    -110.348
  H      -52.100     309.696    -111.777
  H      -50.606     308.737    -111.846
  H      -50.529     310.524    -111.734
  H      -49.536     315.517    -111.395
  H      -49.966     313.934    -110.793
  H      -48.388     314.203    -111.493

 3  4  5  6  7  8  9  10  11  12  13  23  28  29  30  31  32 0
 6-311+G(2d,p)
 ****
 33  34 0
 6-311+G(2d,p)
 ****
 1  2  14  15  16  17  18  19  20  21  22  24  25  26  27 0
 3-21G
 ****
 35  36  37  38  39  40  41  42  43  44  45 0
 3-21G
 ****


