%nproc=1
%NoSave
%Mem=1900MB
#P OB98/GEN NMR

erre ene a

0 1
  C     1013.881    -582.647    -359.401
  O     1014.881    -583.661    -359.397
  P     1014.503    -585.153    -358.950
  C     1016.432    -585.457    -357.273
  O     1015.018    -585.368    -357.446
  C     1016.771    -585.688    -355.791
  O     1016.328    -584.569    -354.992
  C     1016.104    -586.903    -355.164
  O     1016.664    -588.125    -355.586
  C     1016.273    -586.603    -353.684
  O     1017.592    -586.959    -353.236
  C     1016.082    -585.065    -353.648
  N     1014.791    -584.652    -353.151
  C     1014.560    -584.880    -351.792
  O     1015.398    -585.488    -351.112
  N     1013.364    -584.450    -351.270
  C     1012.455    -583.953    -352.036
  N     1011.336    -583.477    -351.428
  C     1012.617    -583.832    -353.498
  C     1013.805    -584.186    -353.975
  O     1014.917    -586.216    -359.921
  O     1012.906    -585.114    -358.781
  H     1012.523    -585.865    -359.289
  H     1017.610    -586.862    -352.266
  H     1011.781    -583.487    -354.095
  H     1013.997    -584.144    -355.055
  H     1016.871    -584.611    -353.022
  H     1015.546    -587.157    -353.045
  H     1015.016    -586.897    -355.425
  H     1017.872    -585.769    -355.703
  H     1011.258    -583.548    -350.425
  H     1016.901    -584.559    -357.612
  H     1010.712    -582.789    -351.902
  H     1016.788    -586.316    -357.884
  P     1015.925    -589.468    -355.198
  C     1017.897    -590.551    -353.933
  O     1016.582    -590.022    -353.868
  O     1016.376    -590.530    -356.314
  O     1014.410    -589.346    -355.154
  H     1015.635    -591.116    -356.531
  H     1018.353    -590.521    -352.945
  H     1018.532    -589.945    -354.603
  H     1017.875    -591.565    -354.296
  H     1014.312    -581.723    -359.725
  H     1013.487    -582.530    -358.413
  H     1013.093    -582.926    -360.068

 3  4  5  6  7  8  9  10  11  12  13  24  27  28  29  30  32 0
 6-311+G(2d,p)
 ****
 34  35 0
 6-311+G(2d,p)
 ****
 1  2  14  15  16  17  18  19  20  21  22  23  25  26 0
 3-21G
 ****
 31  33  36  37  38  39  40  41  42  43  44  45  46 0
 3-21G
 ****


