%nproc=1
%NoSave
%Mem=1900MB
#P OB98/GEN NMR

erre ene a

0 1
  C     -421.673    -657.044     722.472
  O     -422.714    -657.778     723.091
  P     -422.401    -658.358     724.559
  C     -424.005    -656.610     725.652
  O     -423.656    -657.974     725.482
  C     -425.412    -656.510     726.265
  O     -426.390    -657.047     725.340
  C     -425.585    -657.294     727.570
  O     -425.099    -656.549     728.660
  C     -427.108    -657.494     727.587
  O     -427.783    -656.327     728.081
  C     -427.418    -657.727     726.105
  N     -430.122    -662.016     726.337
  C     -430.307    -660.812     726.985
  N     -431.389    -660.702     727.777
  N     -429.507    -659.776     726.868
  C     -428.450    -660.042     726.054
  C     -428.136    -661.180     725.369
  C     -429.070    -662.295     725.465
  O     -429.005    -663.336     724.829
  N     -426.982    -661.054     724.671
  C     -426.592    -659.813     724.898
  N     -427.457    -659.150     725.721
  O     -421.226    -657.410     725.099
  O     -422.017    -659.814     724.608
  H     -428.741    -656.379     727.844
  H     -420.342    -657.840     724.979
  H     -430.791    -662.766     726.454
  H     -425.704    -659.351     724.476
  H     -428.391    -657.309     725.821
  H     -427.404    -658.325     728.260
  H     -432.059    -661.471     727.933
  H     -425.092    -658.263     727.505
  H     -431.555    -659.844     728.274
  H     -425.655    -655.448     726.414
  H     -424.017    -656.110     724.679
  H     -423.277    -656.132     726.312
  P     -424.407    -657.347     729.863
  C     -421.983    -657.212     728.923
  O     -422.884    -656.864     729.965
  O     -424.290    -658.846     729.281
  O     -425.186    -657.331     731.145
  H     -424.451    -659.499     730.018
  H     -421.237    -656.439     728.854
  H     -422.486    -657.323     727.953
  H     -421.498    -658.157     729.176
  H     -421.996    -656.712     721.507
  H     -420.811    -657.669     722.364
  H     -421.426    -656.197     723.077

 3  4  5  6  7  8  9  10  11  12  23  26  30  31 0
 6-311+G(2d,p)
 ****
 33  35  36  37  38 0
 6-311+G(2d,p)
 ****
 1  2  13  14  15  16  17  18  19  20  21  22  24  25 0
 3-21G
 ****
 27  28  29  32  34  39  40  41  42  43  44  45  46  47  48  49 0
 3-21G
 ****


