%nproc=1
%NoSave
%Mem=1900MB
#P OB98/GEN NMR

erre ene a

0 1
  C      248.624    -236.592    -139.757
  O      247.712    -235.482    -139.685
  P      247.061    -235.086    -138.263
  C      246.620    -232.795    -137.069
  O      246.689    -233.525    -138.290
  C      246.595    -231.291    -137.349
  O      247.814    -230.887    -138.025
  C      245.467    -230.836    -138.269
  O      244.224    -230.779    -137.591
  C      245.978    -229.477    -138.718
  O      245.684    -228.465    -137.740
  C      247.498    -229.723    -138.814
  N      247.968    -229.861    -140.188
  C      249.172    -229.240    -140.498
  O      249.806    -228.554    -139.702
  N      249.619    -229.407    -141.786
  C      248.949    -230.065    -142.793
  O      249.391    -230.165    -143.924
  C      247.638    -230.631    -142.417
  C      247.216    -230.499    -141.158
  O      248.343    -235.108    -137.297
  O      246.003    -236.009    -137.760
  H      246.121    -227.645    -138.051
  H      248.058    -235.314    -136.392
  H      250.498    -228.997    -142.026
  H      247.069    -231.135    -143.186
  H      246.250    -230.916    -140.872
  H      248.048    -228.886    -138.345
  H      245.524    -229.145    -139.665
  H      245.401    -231.499    -139.132
  H      246.547    -230.770    -136.385
  H      247.493    -233.039    -136.455
  H      245.712    -233.095    -136.534
  P      243.022    -231.645    -138.213
  C      241.088    -232.921    -136.997
  O      241.960    -231.807    -137.023
  O      243.716    -233.083    -138.347
  O      242.497    -231.081    -139.495
  H      244.367    -233.244    -137.634
  H      241.559    -233.805    -137.419
  H      240.178    -232.677    -137.571
  H      240.803    -233.119    -135.952
  H      248.958    -236.714    -140.766
  H      248.127    -237.483    -139.435
  H      249.465    -236.404    -139.123

 3  4  5  6  7  8  9  10  11  12  13  23  28  29  30  31  32 0
 6-311+G(2d,p)
 ****
 33  34 0
 6-311+G(2d,p)
 ****
 1  2  14  15  16  17  18  19  20  21  22  24  25  26 0
 3-21G
 ****
 27  35  36  37  38  39  40  41  42  43  44  45 0
 3-21G
 ****


