%nproc=1
%NoSave
%Mem=1900MB
#P OB98/GEN NMR

erre ene a

0 1
  C     -260.272    -212.228    -336.747
  O     -259.262    -212.580    -337.702
  P     -259.584    -212.686    -339.278
  C     -258.304    -214.890    -339.586
  O     -258.448    -213.539    -340.028
  C     -256.940    -215.509    -339.963
  O     -256.814    -215.626    -341.419
  C     -255.711    -214.719    -339.483
  O     -254.691    -215.700    -339.250
  C     -255.374    -213.875    -340.702
  O     -254.043    -213.375    -340.684
  C     -255.657    -214.871    -341.823
  N     -253.838    -214.196    -346.576
  C     -253.489    -215.057    -345.583
  N     -254.037    -215.202    -344.374
  C     -255.090    -214.368    -344.211
  C     -255.575    -213.445    -345.126
  C     -254.893    -213.368    -346.355
  N     -255.215    -212.452    -347.344
  N     -256.647    -212.748    -344.604
  C     -256.806    -213.238    -343.384
  N     -255.888    -214.224    -343.101
  O     -259.883    -211.370    -339.924
  O     -260.878    -213.627    -339.354
  H     -253.429    -214.133    -340.631
  H     -261.526    -213.240    -339.967
  H     -252.642    -215.701    -345.809
  H     -257.540    -212.914    -342.665
  H     -254.815    -215.577    -341.947
  H     -256.051    -213.006    -340.737
  H     -255.897    -214.135    -338.585
  H     -256.924    -216.531    -339.568
  H     -259.107    -215.491    -340.018
  H     -254.611    -212.409    -348.150
  H     -255.910    -211.750    -347.148
  H     -258.420    -214.917    -338.494
  P     -254.585    -216.495    -337.851
  C     -252.265    -215.410    -337.668
  O     -253.014    -216.599    -337.514
  O     -255.332    -217.787    -337.801
  O     -255.126    -215.453    -336.761
  H     -255.373    -215.933    -335.953
  H     -252.068    -215.242    -338.741
  H     -251.306    -215.531    -337.151
  H     -252.799    -214.542    -337.264
  H     -259.846    -212.216    -335.766
  H     -261.063    -212.947    -336.783
  H     -260.660    -211.258    -336.979

 3  4  5  6  7  8  9  10  11  12  22  25  29  30  31  32 0
 6-311+G(2d,p)
 ****
 33  36  37 0
 6-311+G(2d,p)
 ****
 1  2  13  14  15  16  17  18  19  20  21  23  24  26 0
 3-21G
 ****
 27  28  34  35  38  39  40  41  42  43  44  45  46  47  48 0
 3-21G
 ****


