%nproc=1
%NoSave
%Mem=1900MB
#P OB98/GEN NMR

erre ene a

0 1
  C      366.967     -44.053    -215.147
  O      368.386     -44.119    -215.211
  P      369.089     -43.719    -216.599
  C      370.045     -46.087    -217.081
  O      370.326     -44.727    -216.763
  C      371.332     -46.902    -217.131
  O      372.269     -46.300    -218.048
  C      372.068     -47.003    -215.801
  O      371.526     -48.010    -214.963
  C      373.459     -47.399    -216.275
  O      373.490     -48.807    -216.577
  C      373.608     -46.577    -217.558
  N      378.156     -44.258    -217.837
  C      377.787     -45.541    -218.037
  N      376.556     -46.085    -217.930
  C      375.662     -45.160    -217.544
  C      375.900     -43.823    -217.267
  C      377.217     -43.368    -217.438
  N      377.586     -42.054    -217.265
  N      374.735     -43.191    -216.897
  C      373.806     -44.122    -216.953
  N      374.315     -45.328    -217.351
  O      369.791     -42.323    -216.259
  O      368.166     -43.615    -217.766
  H      374.242     -48.950    -217.185
  H      369.932     -41.810    -217.077
  H      378.585     -46.223    -218.327
  H      372.759     -43.970    -216.729
  H      374.133     -47.128    -218.347
  H      374.231     -47.218    -215.518
  H      372.114     -46.030    -215.298
  H      371.084     -47.904    -217.509
  H      369.556     -46.130    -218.059
  H      378.499     -41.774    -217.584
  H      376.850     -41.361    -217.165
  H      369.363     -46.495    -216.329
  P      370.708     -47.514    -213.673
  C      371.775     -49.192    -211.998
  O      370.620     -48.791    -212.712
  O      369.219     -47.343    -214.232
  O      371.235     -46.258    -213.064
  H      368.727     -46.690    -213.696
  H      371.473     -49.852    -211.182
  H      372.296     -48.328    -211.574
  H      372.449     -49.737    -212.665
  H      366.640     -44.345    -214.171
  H      366.546     -44.713    -215.876
  H      366.647     -43.051    -215.346

 3  4  5  6  7  8  9  10  11  12  22  25  29  30  31  32 0
 6-311+G(2d,p)
 ****
 33  36  37 0
 6-311+G(2d,p)
 ****
 1  2  13  14  15  16  17  18  19  20  21  23  24  26 0
 3-21G
 ****
 27  28  34  35  38  39  40  41  42  43  44  45  46  47  48 0
 3-21G
 ****


