%nproc=1
%NoSave
%Mem=1900MB
#P OB98/GEN NMR

erre ene a

0 1
  C     -706.953    -559.733    -349.471
  O     -707.169    -560.480    -350.678
  P     -708.623    -560.804    -351.259
  C     -707.978    -563.042    -352.368
  O     -708.487    -561.724    -352.560
  C     -707.996    -563.851    -353.670
  O     -709.312    -563.852    -354.263
  C     -707.061    -563.334    -354.760
  O     -705.713    -563.675    -354.478
  C     -707.648    -564.007    -356.000
  O     -707.175    -565.355    -356.124
  C     -709.159    -563.984    -355.690
  N     -709.859    -562.929    -356.406
  C     -710.068    -563.128    -357.775
  O     -709.614    -564.134    -358.327
  N     -710.755    -562.174    -358.490
  C     -711.139    -561.083    -357.899
  N     -711.829    -560.178    -358.648
  C     -710.863    -560.791    -356.480
  C     -710.226    -561.746    -355.807
  O     -709.484    -559.592    -351.454
  O     -709.292    -561.796    -350.176
  H     -707.471    -565.677    -356.991
  H     -710.257    -561.647    -350.169
  H     -711.181    -559.853    -356.034
  H     -709.992    -561.619    -354.757
  H     -709.617    -564.944    -355.950
  H     -707.384    -563.483    -356.927
  H     -707.175    -562.238    -354.848
  H     -707.742    -564.900    -353.428
  H     -712.008    -560.410    -359.620
  H     -708.618    -563.548    -351.627
  H     -712.169    -559.294    -358.291
  H     -706.962    -562.982    -351.977
  P     -704.551    -562.641    -354.853
  C     -702.684    -564.131    -355.823
  O     -703.151    -563.420    -354.687
  O     -704.609    -561.311    -354.182
  O     -704.668    -562.482    -356.446
  H     -704.391    -561.586    -356.707
  H     -701.604    -564.255    -355.739
  H     -702.912    -563.592    -356.751
  H     -703.164    -565.117    -355.854
  H     -705.902    -559.647    -349.288
  H     -707.417    -560.239    -348.650
  H     -707.378    -558.757    -349.575

 3  4  5  6  7  8  9  10  11  12  13  23  27  28  29  30  32 0
 6-311+G(2d,p)
 ****
 34  35 0
 6-311+G(2d,p)
 ****
 1  2  14  15  16  17  18  19  20  21  22  24  25  26 0
 3-21G
 ****
 31  33  36  37  38  39  40  41  42  43  44  45  46 0
 3-21G
 ****


