%nproc=1
%NoSave
%Mem=1900MB
#P OB98/GEN NMR

erre ene a

0 1
  C     -118.306    -495.516     -24.107
  O     -117.107    -496.031     -23.502
  P     -116.739    -495.591     -22.001
  C     -117.608    -496.138     -19.593
  O     -117.794    -496.264     -20.996
  C     -118.172    -497.365     -18.873
  O     -119.610    -497.426     -19.026
  C     -117.663    -498.698     -19.407
  O     -116.348    -498.978     -18.961
  C     -118.710    -499.662     -18.856
  O     -118.416    -500.015     -17.494
  C     -119.996    -498.817     -18.934
  N     -120.857    -499.202     -20.048
  C     -121.865    -500.121     -19.762
  O     -122.008    -500.639     -18.657
  N     -122.686    -500.452     -20.806
  C     -122.559    -500.015     -22.093
  O     -123.317    -500.364     -22.992
  C     -121.429    -499.111     -22.355
  C     -120.641    -498.758     -21.336
  O     -117.197    -494.056     -21.980
  O     -115.299    -495.719     -21.622
  H     -119.151    -500.579     -17.185
  H     -116.658    -493.563     -21.333
  H     -123.441    -501.089     -20.612
  H     -121.281    -498.761     -23.367
  H     -119.800    -498.088     -21.512
  H     -120.566    -498.911     -18.004
  H     -118.758    -500.594     -19.428
  H     -117.711    -498.703     -20.502
  H     -117.946    -497.268     -17.802
  H     -118.131    -495.245     -19.240
  H     -116.539    -496.027     -19.382
  P     -115.283    -499.409     -20.084
  C     -114.791    -498.035     -22.256
  O     -114.903    -498.049     -20.849
  O     -116.222    -500.214     -21.101
  O     -114.140    -500.201     -19.537
  H     -117.123    -499.842     -21.138
  H     -115.492    -498.732     -22.724
  H     -113.770    -498.304     -22.540
  H     -115.007    -497.026     -22.617
  H     -118.400    -495.905     -25.099
  H     -118.255    -494.448     -24.146
  H     -119.154    -495.812     -23.526

 3  4  5  6  7  8  9  10  11  12  13  23  28  29  30  31  32 0
 6-311+G(2d,p)
 ****
 33  34 0
 6-311+G(2d,p)
 ****
 1  2  14  15  16  17  18  19  20  21  22  24  25  26 0
 3-21G
 ****
 27  35  36  37  38  39  40  41  42  43  44  45 0
 3-21G
 ****


