%nproc=1
%NoSave
%Mem=1900MB
#P OB98/GEN NMR

erre ene a

0 1
  C       24.884    -791.537     180.732
  O       24.501    -792.480     181.736
  P       25.470    -793.738     182.001
  C       24.010    -795.396     180.618
  O       25.279    -794.768     180.788
  C       24.155    -796.669     179.776
  O       24.486    -796.362     178.408
  C       25.244    -797.613     180.268
  O       24.779    -798.434     181.336
  C       25.480    -798.459     179.036
  O       24.466    -799.461     178.923
  C       25.338    -797.423     177.902
  N       29.790    -798.478     175.743
  C       28.714    -799.300     176.014
  N       28.840    -800.604     175.648
  N       27.615    -798.889     176.589
  C       27.623    -797.574     176.879
  C       28.625    -796.660     176.670
  C       29.840    -797.122     176.040
  O       30.837    -796.446     175.791
  N       28.271    -795.411     177.113
  C       27.040    -795.557     177.574
  N       26.615    -796.863     177.475
  O       24.748    -794.483     183.221
  O       26.875    -793.365     182.328
  H       24.632    -800.131     179.624
  H       25.408    -794.974     183.742
  H       30.615    -798.839     175.299
  H       26.427    -794.772     177.994
  H       24.852    -797.848     177.020
  H       26.445    -798.978     179.067
  H       29.634    -800.972     175.149
  H       26.156    -797.057     180.542
  H       28.048    -801.211     175.806
  H       23.183    -797.199     179.792
  H       23.304    -794.706     180.142
  H       23.589    -795.608     181.608
  P       25.414    -798.191     182.796
  C       27.472    -799.616     182.063
  O       26.991    -798.405     182.627
  O       24.932    -799.485     183.608
  O       24.990    -796.934     183.469
  H       24.815    -799.268     184.547
  H       28.540    -799.525     181.885
  H       26.963    -799.831     181.117
  H       27.301    -800.447     182.766
  H       24.148    -790.763     180.670
  H       24.960    -792.033     179.787
  H       25.831    -791.109     180.987

 3  4  5  6  7  8  9  10  11  12  23  26  30  31 0
 6-311+G(2d,p)
 ****
 33  35  36  37  38 0
 6-311+G(2d,p)
 ****
 1  2  13  14  15  16  17  18  19  20  21  22  24  25 0
 3-21G
 ****
 27  28  29  32  34  39  40  41  42  43  44  45  46  47  48  49 0
 3-21G
 ****


