%nproc=1
%NoSave
%Mem=1900MB
#P OB98/GEN NMR

erre ene a

0 1
  C     -257.453    -196.004      66.197
  O     -256.894    -194.709      66.057
  P     -256.648    -194.144      64.576
  C     -259.018    -193.079      64.682
  O     -258.083    -193.832      63.922
  C     -259.329    -191.746      63.995
  O     -259.766    -191.993      62.629
  C     -260.434    -190.942      64.688
  O     -260.160    -189.541      64.550
  C     -261.665    -191.248      63.862
  O     -262.652    -190.224      63.992
  C     -261.055    -191.359      62.465
  N     -265.433    -191.418      59.941
  C     -264.792    -190.363      60.559
  N     -265.453    -189.186      60.581
  N     -263.606    -190.453      61.104
  C     -263.068    -191.693      61.014
  C     -263.599    -192.813      60.410
  C     -264.915    -192.706      59.825
  O     -265.552    -193.606      59.284
  N     -262.743    -193.880      60.490
  C     -261.709    -193.426      61.174
  N     -261.877    -192.115      61.545
  O     -256.142    -195.440      63.777
  O     -255.650    -193.039      64.487
  H     -262.780    -190.072      64.948
  H     -255.182    -195.381      63.625
  H     -266.351    -191.302      59.547
  H     -260.838    -194.000      61.449
  H     -260.875    -190.370      62.027
  H     -262.109    -192.196      64.183
  H     -266.395    -189.068      60.240
  H     -260.573    -191.183      65.750
  H     -265.026    -188.408      61.065
  H     -258.406    -191.160      63.931
  H     -258.592    -192.881      65.669
  H     -259.937    -193.657      64.814
  P     -260.733    -188.593      65.715
  C     -258.612    -189.174      67.106
  O     -260.023    -189.076      67.062
  O     -262.246    -189.088      65.877
  O     -260.645    -187.133      65.413
  H     -262.803    -188.372      66.239
  H     -258.230    -188.463      67.843
  H     -258.154    -188.963      66.134
  H     -258.340    -190.191      67.410
  H     -257.555    -196.238      67.236
  H     -256.811    -196.722      65.731
  H     -258.415    -196.030      65.729

 3  4  5  6  7  8  9  10  11  12  23  26  30  31 0
 6-311+G(2d,p)
 ****
 33  35  36  37  38 0
 6-311+G(2d,p)
 ****
 1  2  13  14  15  16  17  18  19  20  21  22  24  25 0
 3-21G
 ****
 27  28  29  32  34  39  40  41  42  43  44  45  46  47  48  49 0
 3-21G
 ****


