%nproc=1
%NoSave
%Mem=1900MB
#P OB98/GEN NMR

erre ene a

0 1
  C     -166.170     423.123    -128.183
  O     -165.477     423.539    -129.345
  P     -163.962     423.090    -129.601
  C     -162.098     424.920    -129.287
  O     -163.005     424.006    -128.704
  C     -162.865     426.165    -129.752
  O     -163.664     426.689    -128.672
  C     -161.918     427.267    -130.219
  O     -161.740     427.207    -131.627
  C     -162.627     428.525    -129.756
  O     -163.661     428.904    -130.688
  C     -163.248     428.056    -128.415
  N     -162.393     428.063    -127.211
  C     -161.793     429.248    -126.802
  O     -161.946     430.327    -127.374
  N     -160.972     429.147    -125.706
  C     -160.741     428.014    -124.977
  O     -159.831     427.882    -124.166
  C     -161.609     426.873    -125.298
  C     -162.364     426.938    -126.393
  O     -163.680     423.608    -131.089
  O     -163.687     421.631    -129.455
  H     -164.277     428.153    -130.746
  H     -163.771     422.878    -131.728
  H     -160.415     429.972    -125.487
  H     -161.563     426.001    -124.661
  H     -162.994     426.096    -126.665
  H     -164.151     428.642    -128.181
  H     -161.938     429.373    -129.711
  H     -160.958     427.191    -129.696
  H     -163.545     425.877    -130.565
  H     -161.584     424.449    -130.137
  H     -161.326     425.198    -128.559
  P     -160.462     427.905    -132.292
  C     -161.088     429.934    -133.733
  O     -160.844     429.460    -132.420
  O     -159.947     427.265    -133.542
  O     -159.368     427.868    -131.113
  H     -158.769     427.102    -131.243
  H     -161.510     430.941    -133.667
  H     -161.793     429.284    -134.253
  H     -160.145     429.979    -134.292
  H     -167.162     423.524    -128.196
  H     -165.654     423.476    -127.315
  H     -166.218     422.054    -128.160

 3  4  5  6  7  8  9  10  11  12  13  23  28  29  30  31  32 0
 6-311+G(2d,p)
 ****
 33  34 0
 6-311+G(2d,p)
 ****
 1  2  14  15  16  17  18  19  20  21  22  24  25  26  27 0
 3-21G
 ****
 35  36  37  38  39  40  41  42  43  44  45 0
 3-21G
 ****


