%nproc=1
%NoSave
%Mem=1900MB
#P OB98/GEN NMR

erre ene a

0 1
  C       93.968     -16.751      64.577
  O       92.561     -16.915      64.497
  P       91.742     -16.349      63.239
  C       91.070     -14.216      64.507
  O       91.747     -14.748      63.374
  C       91.339     -12.718      64.641
  O       92.753     -12.518      64.886
  C       90.976     -11.922      63.390
  O       90.463     -10.647      63.787
  C       92.304     -11.703      62.683
  O       92.268     -10.525      61.859
  C       93.270     -11.635      63.870
  N       97.979     -10.107      62.507
  C       96.866      -9.411      62.819
  N       95.640      -9.880      63.147
  C       95.648     -11.222      63.191
  C       96.709     -12.069      62.902
  C       97.924     -11.458      62.543
  N       99.064     -12.171      62.238
  N       96.327     -13.391      63.025
  C       95.067     -13.340      63.400
  N       94.613     -12.054      63.524
  O       90.394     -16.951      63.042
  O       92.701     -16.609      61.986
  H       91.529     -10.639      61.228
  H       92.176     -16.875      61.206
  H       96.967      -8.327      62.798
  H       94.438     -14.199      63.582
  H       93.319     -10.622      64.293
  H       92.521     -12.561      62.036
  H       90.248     -12.437      62.756
  H       90.796     -12.339      65.515
  H       91.440     -14.728      65.402
  H       99.917     -11.650      62.112
  H       99.071     -13.164      62.433
  H       89.996     -14.409      64.416
  P       89.281     -10.047      62.868
  C       90.876      -8.207      61.941
  O       90.038      -9.308      61.666
  O       88.310      -9.239      63.665
  O       88.677     -11.384      62.229
  H       89.343     -12.107      62.206
  H       91.265      -7.817      60.997
  H       91.720      -8.520      62.561
  H       90.314      -7.415      62.446
  H       94.328     -17.193      65.483
  H       94.207     -15.708      64.569
  H       94.431     -17.229      63.739

 3  4  5  6  7  8  9  10  11  12  22  25  29  30  31  32 0
 6-311+G(2d,p)
 ****
 33  36  37 0
 6-311+G(2d,p)
 ****
 1  2  13  14  15  16  17  18  19  20  21  23  24  26 0
 3-21G
 ****
 27  28  34  35  38  39  40  41  42  43  44  45  46  47  48 0
 3-21G
 ****


