%nproc=1
%NoSave
%Mem=1900MB
#P OB98/GEN NMR

erre ene a

0 1
  C       85.864      41.276    -156.386
  O       85.082      42.262    -155.742
  P       84.819      43.691    -156.419
  C       87.016      44.647    -155.466
  O       86.266      44.364    -156.640
  C       87.969      45.824    -155.713
  O       88.945      45.434    -156.724
  C       87.243      47.088    -156.224
  O       87.514      48.274    -155.477
  C       87.639      47.134    -157.691
  O       87.503      48.411    -158.286
  C       89.052      46.537    -157.648
  N       89.520      46.116    -158.966
  C       89.720      47.118    -159.918
  O       89.538      48.316    -159.716
  N       90.083      46.696    -161.165
  C       90.158      45.394    -161.583
  O       90.397      45.089    -162.738
  C       89.902      44.382    -160.546
  C       89.621      44.782    -159.303
  O       83.842      44.560    -155.711
  O       84.398      43.310    -157.918
  H       88.019      49.047    -157.751
  H       85.069      42.815    -158.421
  H       90.233      47.407    -161.865
  H       89.941      43.345    -160.850
  H       89.424      44.054    -158.517
  H       89.773      47.242    -157.231
  H       86.972      46.454    -158.244
  H       86.148      46.975    -156.147
  H       88.500      46.028    -154.772
  H       87.604      43.760    -155.199
  H       86.341      44.854    -154.630
  P       86.437      49.398    -155.103
  C       87.109      50.847    -157.166
  O       86.076      50.203    -156.444
  O       86.775      50.249    -153.936
  O       85.101      48.561    -154.819
  H       84.546      49.034    -154.178
  H       86.684      51.708    -157.689
  H       87.524      50.151    -157.901
  H       87.903      51.195    -156.500
  H       85.915      40.403    -155.770
  H       86.851      41.655    -156.550
  H       85.418      41.024    -157.325

 3  4  5  6  7  8  9  10  11  12  13  23  28  29  30  31  32 0
 6-311+G(2d,p)
 ****
 33  34 0
 6-311+G(2d,p)
 ****
 1  2  14  15  16  17  18  19  20  21  22  24  25  26  27 0
 3-21G
 ****
 35  36  37  38  39  40  41  42  43  44  45 0
 3-21G
 ****


