%nproc=1
%NoSave
%Mem=1900MB
#P OB98/GEN NMR

erre ene a

0 1
  C       20.367      34.457    -161.390
  O       19.383      34.732    -160.388
  P       18.493      36.056    -160.595
  C       17.464      37.085    -162.757
  O       17.737      35.910    -162.004
  C       16.086      37.006    -163.406
  O       16.011      35.901    -164.332
  C       14.943      36.777    -162.426
  O       14.562      37.980    -161.772
  C       13.843      36.299    -163.359
  O       13.194      37.425    -163.973
  C       14.624      35.489    -164.409
  N       15.423      30.928    -166.476
  C       15.603      32.188    -167.014
  N       16.088      32.238    -168.274
  N       15.332      33.298    -166.377
  C       14.879      33.091    -165.114
  C       14.657      31.897    -164.468
  C       14.936      30.677    -165.195
  O       14.765      29.535    -164.779
  N       14.204      32.092    -163.186
  C       14.178      33.405    -163.048
  N       14.563      34.057    -164.192
  O       19.592      37.185    -160.884
  O       17.633      36.397    -159.428
  H       12.699      37.891    -163.267
  H       19.252      38.058    -160.616
  H       15.644      30.108    -167.011
  H       13.891      33.929    -162.145
  H       14.276      35.701    -165.427
  H       13.061      35.728    -162.839
  H       16.387      31.426    -168.794
  H       15.196      35.982    -161.708
  H       16.260      33.155    -168.671
  H       15.917      37.937    -163.964
  H       18.224      37.212    -163.532
  H       17.539      37.957    -162.096
  P       14.058      37.863    -160.253
  C       15.232      38.575    -158.052
  O       15.371      38.027    -159.350
  O       13.679      36.312    -160.113
  O       12.905      38.751    -159.916
  H       12.980      36.195    -159.448
  H       14.364      38.160    -157.537
  H       15.136      39.664    -158.122
  H       16.132      38.337    -157.474
  H       20.889      33.557    -161.140
  H       21.062      35.269    -161.440
  H       19.887      34.339    -162.339

 3  4  5  6  7  8  9  10  11  12  23  26  30  31  33  0
 6-311+G(2d,p)
 ****
 35  36  37  38 0
 6-311+G(2d,p)
 ****
 1  2  13  14  15  16  17  18  19  20  21  22  24  25  27  28  29 0
 3-21G
 ****
 32  34  39  40  41  42  43  44  45  46  47  48  49 0
 3-21G
 ****


