%nproc=1
%NoSave
%Mem=1900MB
#P OB98/GEN NMR

erre ene a

0 1
  C       66.404      91.850    -235.577
  O       67.787      92.059    -235.375
  H       66.038      91.166    -234.807
  H       66.231      91.399    -236.555
  H       65.851      92.791    -235.497
  P       68.533      93.181    -236.241
  C       69.757      91.340    -237.573
  O       69.888      92.521    -236.788
  C       71.133      90.732    -237.830
  O       71.912      91.606    -238.674
  C       71.963      90.520    -236.568
  O       71.507      89.391    -235.847
  C       73.356      90.380    -237.167
  O       73.558      89.055    -237.686
  C       73.301      91.417    -238.315
  N       73.931      92.691    -237.968
  C       75.321      92.715    -237.965
  O       76.010      91.723    -238.195
  N       75.898      93.922    -237.661
  C       75.233      95.057    -237.293
  O       75.801      96.100    -236.982
  C       73.766      94.964    -237.284
  C       73.190      93.806    -237.617
  O       68.706      94.508    -235.579
  O       67.633      93.295    -237.562
  H       73.430      88.441    -236.937
  H       67.052      94.076    -237.498
  H       76.904      93.958    -237.641
  H       73.206      95.842    -236.990
  H       72.110      93.714    -237.607
  H       73.804      91.021    -239.208
  H       74.147      90.559    -236.440
  H       71.939      91.420    -235.944
  H       70.990      89.784    -238.366
  H       69.289      91.604    -238.529
  H       69.111      90.633    -237.043
  P       70.545      89.566    -234.581
  C       72.337      88.594    -233.031
  O       70.993      88.484    -233.479
  O       69.084      89.571    -234.888
  O       71.003      90.953    -233.930
  H       70.338      91.643    -234.120
  H       72.534      87.834    -232.304
  H       72.488      89.557    -232.590
  H       73.001      88.474    -233.862

 6  7  8  9  10  11  12  13  14  15  16  26  31  32  33  34  35 0
 6-311+G(2d,p)
 ****
 36  37 0
 6-311+G(2d,p)
 ****
 1  2  3  4  5  17  18  19  20  21  22  23  24  25 0
 3-21G
 ****
 27  28  29  30  38  39  40  41  42  43  44  45 0
 3-21G
 ****


