%nproc=1
%NoSave
%Mem=1900MB
#P OB98/GEN NMR

erre ene a

0 1
  C       86.515    -298.939     184.132
  O       85.957    -297.720     183.687
  H       85.831    -299.398     184.850
  H       87.473    -298.756     184.627
  H       86.656    -299.623     183.291
  P       86.792    -296.903     182.588
  C       85.417    -297.331     180.422
  O       86.565    -297.665     181.194
  C       85.850    -296.785     179.064
  O       86.606    -295.568     179.254
  C       86.764    -297.718     178.278
  O       86.040    -298.750     177.632
  C       87.421    -296.741     177.311
  O       86.594    -296.495     176.167
  C       87.540    -295.466     178.156
  N       92.013    -293.206     177.232
  C       90.830    -293.168     176.581
  N       89.675    -293.787     176.905
  C       89.822    -294.498     178.036
  C       90.965    -294.636     178.803
  C       92.105    -293.944     178.362
  N       93.318    -294.011     179.005
  N       90.735    -295.485     179.866
  C       89.473    -295.845     179.749
  N       88.882    -295.269     178.661
  O       88.310    -297.247     182.965
  O       86.540    -295.433     182.559
  H       86.945    -295.691     175.738
  H       88.671    -296.546     183.539
  H       90.810    -292.564     175.678
  H       88.951    -296.522     180.415
  H       87.272    -294.568     177.588
  H       88.375    -297.125     176.946
  H       87.534    -298.138     178.936
  H       84.951    -296.541     178.484
  H       84.838    -296.566     180.950
  H       84.800    -298.226     180.299
  H       94.100    -293.507     178.618
  H       93.425    -294.643     179.787
  P       86.847    -299.810     176.745
  C       88.447    -300.843     178.516
  O       88.303    -299.982     177.397
  O       87.131    -299.013     175.388
  O       86.127    -301.094     176.499
  H       86.495    -299.279     174.698
  H       89.469    -300.850     178.832
  H       88.151    -301.835     178.244
  H       87.829    -300.494     179.317

 6  7  8  9  10  11  12  13  14  15  25  28  32  33  34  35 0
 6-311+G(2d,p)
 ****
 36  37  40 0
 6-311+G(2d,p)
 ****
 1  2  3  4  5  16  17  18  19  20  21  22  23  24 0
 3-21G
 ****
 26  27  29  30  31  38  39 41  42  43  44  45  46  47  48 0
 3-21G
 ****


