%nproc=1
%NoSave
%Mem=1900MB
#P OB98/GEN NMR

erre ene a

0 1
  C       63.563    -288.033    -495.720
  O       64.629    -288.528    -494.929
  H       63.593    -286.943    -495.705
  H       62.599    -288.359    -495.322
  H       63.669    -288.376    -496.755
  P       64.707    -290.111    -494.669
  C       64.991    -289.680    -492.131
  O       65.534    -290.278    -493.303
  C       66.119    -289.179    -491.230
  O       66.999    -290.266    -490.877
  C       67.001    -288.132    -491.897
  O       66.351    -286.879    -491.943
  C       68.237    -288.204    -491.029
  O       68.061    -287.468    -489.815
  C       68.328    -289.724    -490.746
  N       69.263    -290.401    -491.637
  C       70.279    -291.142    -491.013
  O       70.348    -291.197    -489.789
  N       71.202    -291.781    -491.813
  C       71.105    -291.710    -493.104
  N       72.051    -292.367    -493.830
  C       70.042    -290.953    -493.796
  C       69.171    -290.328    -493.009
  O       65.201    -290.959    -495.798
  O       63.210    -290.494    -494.239
  H       68.090    -286.519    -490.070
  H       62.683    -290.729    -495.022
  H       70.002    -290.922    -494.878
  H       68.355    -289.753    -493.438
  H       68.646    -289.901    -489.713
  H       69.111    -287.796    -491.540
  H       67.280    -288.461    -492.908
  H       65.673    -288.788    -490.309
  H       72.766    -292.860    -493.316
  H       64.407    -290.448    -491.615
  H       72.032    -292.448    -494.833
  H       64.323    -288.855    -492.389
  P       66.426    -285.961    -493.255
  C       68.123    -284.290    -492.248
  O       66.793    -284.488    -492.725
  O       65.247    -286.044    -494.165
  O       67.796    -286.436    -493.949
  H       67.694    -287.322    -494.376
  H       68.239    -283.276    -491.926
  H       68.818    -284.497    -493.034
  H       68.309    -284.949    -491.425

 6  7  8  9  10  11  12  13  14  15  16  26  30  31  32  33  35 0
 6-311+G(2d,p)
 ****
 37  38 0
 6-311+G(2d,p)
 ****
 1  2  3  4  5  17  18  19  20  21  22  23  24  25 0
 3-21G
 ****
 27  28  29  34  36  39  40  41  42  43  44  45  46 0
 3-21G
 ****


