%nproc=1
%NoSave
%Mem=1900MB
#P OB98/GEN NMR

erre ene a

0 1
  C     -231.405    1195.179    -101.441
  O     -231.105    1195.967    -100.298
  H     -231.925    1194.276    -101.115
  H     -230.486    1194.883    -101.954
  H     -232.057    1195.729    -102.129
  P     -230.427    1197.405    -100.512
  C     -232.371    1198.785     -99.564
  O     -231.028    1198.367     -99.370
  C     -233.046    1199.046     -98.223
  O     -233.105    1197.814     -97.476
  C     -232.310    1200.090     -97.353
  O     -233.286    1200.873     -96.673
  C     -231.556    1199.223     -96.354
  O     -231.293    1199.920     -95.144
  C     -232.480    1198.038     -96.191
  N     -229.267    1196.197     -92.744
  C     -229.860    1197.436     -92.827
  N     -229.524    1198.345     -91.878
  N     -230.701    1197.778     -93.784
  C     -230.952    1196.769     -94.660
  C     -230.418    1195.505     -94.677
  C     -229.485    1195.149     -93.636
  O     -228.917    1194.059     -93.511
  N     -230.901    1194.787     -95.753
  C     -231.716    1195.624     -96.379
  N     -231.766    1196.843     -95.759
  O     -230.500    1197.956    -101.896
  O     -228.911    1197.187    -100.035
  H     -230.750    1199.327     -94.579
  H     -228.322    1197.069    -100.805
  H     -228.618    1196.000     -91.994
  H     -232.269    1195.394     -97.274
  H     -233.282    1198.211     -95.443
  H     -230.589    1198.922     -96.786
  H     -228.902    1198.157     -91.122
  H     -231.650    1200.734     -97.933
  H     -229.969    1199.254     -91.917
  H     -234.089    1199.359     -98.400
  H     -232.910    1197.997    -100.099
  H     -232.390    1199.697    -100.177
  P     -233.250    1202.463     -96.834
  C     -235.829    1202.495     -96.980
  O     -234.661    1203.055     -96.363
  O     -232.763    1202.972     -98.165
  O     -232.264    1202.934     -95.648
  H     -231.812    1203.738     -95.920
  H     -236.703    1202.969     -96.585
  H     -235.871    1201.445     -96.778
  H     -235.784    1202.653     -98.037

 6  7  8  9  10  11  12  13  14  15  26  29  33  34 0
 6-311+G(2d,p)
 ****
 36  38  39  40  41 0
 6-311+G(2d,p)
 ****
 1  2  3  4  5  16  17  18  19  20  21  22  23  24  25 0
 3-21G
 ****
 27  28  30  31  32  35  37  42  43  44  45  46  47 0
 3-21G
 ****
 48  49 0
 3-21G
 ****


