%nproc=1
%NoSave
%Mem=1900MB
#P OB98/GEN NMR

erre ene a

0 1
  C      296.845     276.924    -293.263
  O      295.696     276.212    -293.674
  H      296.619     277.994    -293.276
  H      297.670     276.730    -293.954
  H      297.132     276.635    -292.248
  P      295.757     274.611    -293.554
  C      293.724     274.195    -291.946
  O      294.253     274.141    -293.259
  C      292.279     273.691    -291.926
  O      291.404     274.774    -292.333
  C      292.027     272.510    -292.865
  O      291.069     271.643    -292.255
  C      291.406     273.162    -294.089
  O      290.628     272.243    -294.852
  C      290.613     274.312    -293.445
  N      290.327     275.390    -294.390
  C      289.283     275.173    -295.295
  O      288.661     274.111    -295.280
  N      288.994     276.145    -296.218
  C      289.726     277.210    -296.282
  N      289.406     278.125    -297.236
  C      290.866     277.462    -295.378
  C      291.103     276.524    -294.462
  O      296.499     274.416    -292.149
  O      296.423     273.933    -294.703
  H      290.246     272.721    -295.620
  H      296.166     275.003    -291.451
  H      291.455     278.361    -295.476
  H      291.913     276.629    -293.752
  H      289.658     273.945    -293.046
  H      292.188     273.562    -294.743
  H      292.935     271.953    -293.096
  H      292.013     273.438    -290.893
  H      288.631     277.904    -297.849
  H      293.755     275.221    -291.565
  H      289.940     278.963    -297.412
  H      294.351     273.572    -291.302
  P      290.893     270.151    -292.805
  C      291.641     268.793    -290.733
  O      290.562     269.171    -291.578
  O      291.955     269.672    -293.733
  O      289.481     270.225    -293.572
  H      289.562     269.708    -294.399
  H      291.280     268.143    -289.963
  H      292.070     269.667    -290.290
  H      292.384     268.284    -291.310

 6  7  8  9  10  11  12  13  14  15  16  26  30  31  32  33  35 0
 6-311+G(2d,p)
 ****
 37  38 0
 6-311+G(2d,p)
 ****
 1  2  3  4  5  17  18  19  20  21  22  23  24  25 0
 3-21G
 ****
 27  28  29  34  36  39  40  41  42  43  44  45  46 0
 3-21G
 ****


