%nproc=1
%NoSave
%Mem=1900MB
#P OB98/GEN NMR

erre ene a

0 1
  C      496.848      88.927    1114.672
  O      497.428      89.638    1115.751
  H      495.775      89.132    1114.655
  H      496.999      87.853    1114.794
  H      497.285      89.263    1113.721
  P      498.983      89.414    1116.066
  C      498.704      87.200    1117.387
  O      499.053      88.579    1117.445
  C      497.983      86.778    1118.680
  O      498.939      86.860    1119.781
  C      496.778      87.663    1119.047
  O      495.841      86.833    1119.759
  C      497.418      88.663    1119.983
  O      496.451      89.395    1120.697
  C      498.361      87.756    1120.765
  N      499.386      88.501    1121.484
  C      499.526      88.210    1122.845
  O      498.792      87.372    1123.373
  N      500.476      88.886    1123.570
  C      501.160      89.822    1123.011
  N      502.071      90.477    1123.793
  C      501.014      90.206    1121.595
  C      500.120      89.503    1120.880
  O      499.832      90.635    1116.041
  O      499.450      88.342    1114.974
  H      496.875      89.879    1121.459
  H      499.968      88.792    1114.275
  H      501.605      91.009    1121.173
  H      499.934      89.702    1119.838
  H      497.801      87.141    1121.502
  H      498.003      89.411    1119.412
  H      496.301      88.116    1118.168
  H      497.694      85.709    1118.577
  H      502.128      90.188    1124.767
  H      499.620      86.630    1117.262
  H      502.656      91.241    1123.467
  H      498.043      87.014    1116.522
  P      494.603      86.086    1119.032
  C      492.733      87.650    1119.877
  O      493.279      86.326    1119.881
  O      494.885      84.643    1118.703
  O      494.352      86.921    1117.682
  H      494.018      86.319    1117.000
  H      491.851      87.674    1120.482
  H      492.486      87.931    1118.875
  H      493.455      88.335    1120.271

 6  7  8  9  10  11  12  13  14  15  16  26  30  31  32  33  35 0
 6-311+G(2d,p)
 ****
 37  38 0
 6-311+G(2d,p)
 ****
 1  2  3  4  5  17  18  19  20  21  22  23  24  25 0
 3-21G
 ****
 27  28  29  34  36  39  40  41  42  43  44  45  46 0
 3-21G
 ****


