%nproc=1
%NoSave
%Mem=1900MB
#P OB98/GEN NMR

erre ene a

0 1
  C     1117.747     289.515     367.839
  O     1118.059     288.613     368.875
  H     1116.719     289.859     367.973
  H     1117.832     289.025     366.869
  H     1118.404     290.393     367.869
  P     1119.598     288.156     368.983
  C     1120.289     289.824     370.858
  O     1120.060     288.473     370.496
  C     1120.521     289.933     372.376
  O     1119.262     289.764     373.082
  C     1121.475     288.884     372.937
  O     1122.816     289.251     372.772
  C     1121.067     288.918     374.405
  O     1121.659     290.085     375.042
  C     1119.559     289.058     374.319
  N     1119.029     284.546     376.582
  C     1119.883     285.595     376.883
  N     1120.734     285.404     377.908
  N     1119.906     286.725     376.200
  C     1119.012     286.766     375.199
  C     1118.108     285.790     374.812
  C     1118.085     284.562     375.556
  O     1117.340     283.614     375.359
  N     1117.364     286.197     373.745
  C     1117.814     287.423     373.466
  N     1118.838     287.790     374.309
  O     1120.380     289.263     368.119
  O     1119.898     286.780     368.491
  H     1122.605     290.067     374.833
  H     1121.122     288.838     367.664
  H     1119.050     283.703     377.117
  H     1117.452     288.043     372.667
  H     1119.140     289.664     375.136
  H     1121.431     288.055     374.965
  H     1120.795     284.524     378.433
  H     1121.248     287.877     372.524
  H     1121.360     286.169     378.153
  H     1120.887     290.946     372.584
  H     1119.417     290.423     370.580
  H     1121.161     290.201     370.311
  P     1123.953     288.161     373.189
  C     1124.928     287.565     370.842
  O     1125.111     288.293     372.069
  O     1123.240     286.777     372.850
  O     1124.404     288.250     374.600
  H     1123.652     286.060     373.386
  H     1125.762     287.741     370.195
  H     1124.030     287.894     370.363
  H     1124.856     286.519     371.055

 6  7  8  9  10  11  12  13  14  15  26  29  33  34 0
 6-311+G(2d,p)
 ****
 36  38  39  40  41 0
 6-311+G(2d,p)
 ****
 1  2  3  4  5  16  17  18  19  20  21  22  23  24  25 0
 3-21G
 ****
 27  28  30  31  32  35  37  42  43  44  45  46  47 0
 3-21G
 ****
 48  49 0
 3-21G
 ****


