%nproc=1
%NoSave
%Mem=1900MB
#P OB98/GEN NMR

erre ene a

0 1
  C       -3.993    -385.210     245.925
  O       -5.013    -386.076     246.377
  P       -6.056    -386.789     245.401
  C       -4.671    -388.957     245.033
  O       -5.239    -387.793     244.440
  C       -5.096    -390.259     244.333
  O       -6.528    -390.406     244.430
  C       -4.770    -390.176     242.835
  O       -3.467    -390.487     242.367
  C       -5.896    -390.941     242.145
  O       -5.532    -392.285     241.814
  C       -7.021    -390.931     243.186
  N      -10.090    -389.592     239.380
  C       -9.195    -390.642     239.441
  N       -8.955    -391.286     238.280
  N       -8.571    -390.998     240.537
  C       -8.846    -390.194     241.595
  C       -9.733    -389.137     241.659
  C      -10.433    -388.781     240.452
  O      -11.180    -387.809     240.329
  N       -9.688    -388.509     242.876
  C       -8.755    -389.155     243.538
  N       -8.184    -390.159     242.793
  O       -7.111    -385.921     244.791
  O       -6.791    -387.809     246.407
  H       -4.859    -392.247     241.115
  H       -7.725    -387.881     246.119
  H      -10.480    -389.320     238.484
  H       -8.433    -388.919     244.550
  H       -7.367    -391.946     243.387
  H       -6.165    -390.451     241.196
  H       -9.292    -390.948     237.393
  H       -4.916    -389.133     242.535
  H       -8.176    -391.940     238.252
  H       -4.666    -391.136     244.823
  H       -4.965    -388.970     246.085
  H       -3.577    -388.876     245.007
  P       -2.851    -390.097     240.950
  C       -1.492    -388.074     241.728
  O       -2.576    -388.522     240.936
  O       -4.076    -390.260     239.925
  O       -1.694    -390.940     240.512
  H       -3.733    -390.390     239.024
  H       -1.589    -386.995     241.879
  H       -0.550    -388.272     241.204
  H       -1.489    -388.577     242.699
  H       -3.426    -384.859     246.762
  H       -4.432    -384.377     245.417
  H       -3.348    -385.738     245.254

 3  4  5  6  7  8  9  10  11  12  23  26  30  31 0
 6-311+G(2d,p)
 ****
 33  35  36  37  38 0
 6-311+G(2d,p)
 ****
 1  2  13  14  15  16  17  18  19  20  21  22  24  25 0
 3-21G
 ****
 27  28  29  32  34  39  40  41  42  43  44  45  46  47  48  49 0
 3-21G
 ****


