%nproc=1
%NoSave
%Mem=1900MB
#P OB98/GEN NMR

erre ene a

0 1
  C     -657.221    -885.487     221.186
  O     -658.267    -884.948     220.415
  H     -657.628    -886.239     221.859
  H     -656.742    -884.701     221.769
  H     -656.468    -885.972     220.540
  P     -657.921    -884.037     219.144
  C     -657.268    -882.018     220.605
  O     -656.833    -882.954     219.639
  C     -656.174    -880.970     220.872
  O     -655.640    -880.525     219.585
  C     -656.673    -879.715     221.612
  O     -655.587    -879.225     222.395
  C     -656.972    -878.773     220.462
  O     -657.065    -877.430     220.902
  C     -655.822    -879.098     219.514
  N     -656.060    -878.627     218.147
  C     -655.801    -877.288     217.889
  O     -655.433    -876.496     218.763
  N     -656.058    -876.857     216.629
  C     -656.545    -877.630     215.603
  O     -656.777    -877.181     214.486
  C     -656.851    -879.032     215.943
  C     -656.563    -879.464     217.185
  O     -659.094    -883.456     218.429
  O     -657.057    -884.998     218.197
  H     -657.233    -876.832     220.136
  H     -657.192    -884.761     217.260
  H     -655.869    -875.886     216.415
  H     -657.256    -879.655     215.168
  H     -656.765    -880.484     217.455
  H     -654.888    -878.627     219.869
  H     -657.938    -879.027     219.990
  H     -657.545    -879.907     222.245
  H     -655.348    -881.450     221.405
  H     -657.488    -882.557     221.537
  H     -658.181    -881.517     220.250
  P     -655.421    -879.570     223.955
  C     -656.998    -877.727     224.856
  O     -656.775    -879.130     224.723
  O     -654.165    -879.038     224.573
  O     -655.452    -881.175     224.016
  H     -654.942    -881.478     224.797
  H     -657.918    -877.560     225.377
  H     -657.052    -877.281     223.885
  H     -656.192    -877.288     225.406

 6  7  8  9  10  11  12  13  14  15  16  26  31  32  33  34  35 0
 6-311+G(2d,p)
 ****
 36  37 0
 6-311+G(2d,p)
 ****
 1  2  3  4  5  17  18  19  20  21  22  23  24  25 0
 3-21G
 ****
 27  28  29  30  38  39  40  41  42  43  44  45 0
 3-21G
 ****


