%nproc=1
%NoSave
%Mem=1900MB
#P OB98/GEN NMR

erre ene a

0 1
  C     -899.200    -466.214    -891.840
  O     -898.590    -464.943    -892.030
  P     -897.950    -464.247    -890.730
  C     -895.510    -463.730    -891.480
  O     -896.370    -464.573    -890.710
  C     -895.270    -464.349    -892.850
  O     -896.500    -464.479    -893.610
  C     -894.360    -463.503    -893.740
  O     -893.000    -463.647    -893.340
  C     -894.670    -464.113    -895.120
  O     -893.970    -465.351    -895.300
  C     -896.180    -464.367    -895.000
  N     -898.050    -462.590    -899.420
  C     -897.250    -463.632    -899.130
  N     -896.810    -464.039    -897.940
  C     -897.260    -463.245    -896.950
  C     -898.070    -462.126    -897.090
  C     -898.480    -461.796    -898.400
  N     -899.270    -460.711    -898.680
  N     -898.340    -461.562    -895.860
  C     -897.650    -462.304    -895.000
  N     -897.000    -463.342    -895.620
  O     -898.530    -465.125    -889.520
  O     -898.320    -462.803    -890.590
  H     -894.210    -465.698    -896.180
  H     -899.200    -464.613    -889.040
  H     -896.960    -464.231    -900.000
  H     -897.620    -462.136    -893.920
  H     -896.480    -465.322    -895.470
  H     -894.390    -463.443    -895.940
  H     -894.660    -462.460    -893.720
  H     -894.840    -465.354    -892.730
  H     -894.550    -463.605    -890.960
  H     -899.440    -460.502    -899.640
  H     -899.530    -460.075    -897.920
  H     -895.960    -462.745    -891.560
  P     -892.340    -462.418    -892.540
  C     -892.270    -463.444    -890.180
  O     -892.950    -462.564    -891.040
  O     -893.160    -461.173    -893.130
  O     -890.860    -462.328    -892.630
  H     -894.130    -461.345    -893.150
  H     -892.760    -463.444    -889.210
  H     -891.230    -463.142    -890.070
  H     -892.310    -464.471    -890.600
  H     -899.585    -466.568    -892.774
  H     -900.000    -466.124    -891.135
  H     -898.473    -466.906    -891.468

 3  4  5  6  7  8  9  10  11  12  22  25  29  30  31  32 0
 6-311+G(2d,p)
 ****
 33  36  37 0
 6-311+G(2d,p)
 ****
 1  2  13  14  15  16  17  18  19  20  21  23  24  26 0
 3-21G
 ****
 27  28  34  35  38  39  40  41  42  43  44  45  46  47  48 0
 3-21G
 ****


