%nproc=1
%NoSave
%Mem=1900MB
#P OB98/GEN NMR

erre ene a

0 1
  C      287.087     321.891    -730.632
  O      287.755     323.086    -730.201
  P      288.017     323.310    -728.634
  C      289.470     324.865    -727.158
  O      288.856     324.661    -728.425
  C      290.607     325.893    -727.270
  O      291.738     325.347    -728.008
  C      290.209     327.133    -728.065
  O      289.265     328.000    -727.459
  C      291.547     327.713    -728.459
  O      292.111     328.500    -727.409
  C      292.403     326.431    -728.680
  N      292.598     326.130    -730.107
  C      293.911     326.230    -730.575
  O      294.849     326.596    -729.875
  N      294.090     325.918    -731.896
  C      293.096     325.579    -732.781
  O      293.325     325.339    -733.963
  C      291.735     325.518    -732.240
  C      291.556     325.780    -730.937
  O      288.517     322.135    -727.878
  O      286.551     323.736    -728.100
  H      291.423     329.121    -727.112
  H      286.412     323.295    -727.237
  H      295.029     325.993    -732.252
  H      290.942     325.248    -732.904
  H      290.553     325.747    -730.515
  H      293.396     326.543    -728.210
  H      291.468     328.371    -729.342
  H      289.722     326.793    -728.995
  H      290.948     326.144    -726.271
  H      289.853     323.903    -726.778
  H      288.708     325.187    -726.438
  P      287.692     327.919    -727.738
  C      285.729     327.780    -726.026
  O      286.915     328.429    -726.429
  O      287.173     326.676    -728.386
  O      287.479     329.164    -728.744
  H      286.755     328.934    -729.368
  H      285.333     328.274    -725.133
  H      285.915     326.734    -725.810
  H      284.981     327.855    -726.828
  H      286.993     321.899    -731.698
  H      286.114     321.847    -730.189
  H      287.656     321.036    -730.331

 3  4  5  6  7  8  9  10  11  12  13  23  28  29  30  31  32 0
 6-311+G(2d,p)
 ****
 33  34 0
 6-311+G(2d,p)
 ****
 1  2  14  15  16  17  18  19  20  21  22  24  25  26  27 0
 3-21G
 ****
 35  36  37  38  39  40  41  42  43  44  45 0
 3-21G
 ****


