%nproc=1
%NoSave
%Mem=1900MB
#P OB98/GEN NMR

erre ene a

0 1
  C      450.680     839.108     -58.032
  O      450.198     838.864     -59.336
  H      450.147     839.967     -57.614
  H      451.751     839.334     -58.051
  H      450.499     838.233     -57.390
  P      450.882     837.653     -60.140
  C      449.440     835.539     -59.852
  O      449.653     836.733     -60.599
  C      449.816     834.311     -60.685
  O      449.903     833.166     -59.799
  C      448.795     833.982     -61.770
  O      449.488     833.524     -62.949
  C      447.985     832.836     -61.181
  O      447.399     832.013     -62.180
  C      449.046     832.134     -60.319
  N      447.363     827.530     -58.893
  C      448.037     827.942     -59.984
  N      448.457     829.196     -60.278
  C      448.160     830.050     -59.280
  C      447.467     829.777     -58.113
  C      447.041     828.435     -57.934
  N      446.326     828.014     -56.851
  N      447.310     830.921     -57.360
  C      447.914     831.869     -58.057
  N      448.428     831.388     -59.234
  O      451.989     836.945     -59.422
  O      451.309     838.372     -61.507
  H      448.121     831.674     -62.758
  H      450.598     838.948     -61.846
  H      448.264     827.178     -60.718
  H      447.988     832.913     -57.761
  H      449.646     831.429     -60.897
  H      447.184     833.242     -60.555
  H      448.160     834.835     -62.036
  H      450.822     834.459     -61.099
  H      448.388     835.469     -59.548
  H      446.081     827.036     -56.788
  H      446.104     828.671     -56.111
  H      450.058     835.596     -58.947
  P      449.869     834.599     -64.073
  C      452.024     835.891     -63.463
  O      451.468     834.754     -64.114
  O      449.109     835.883     -64.047
  O      449.580     833.785     -65.428
  H      449.202     834.404     -66.096
  H      453.089     835.874     -63.564
  H      451.764     835.871     -62.425
  H      451.637     836.783     -63.910

 6  7  8  9  10  11  12  13  14  15  25  28  32  33  34  35 0
 6-311+G(2d,p)
 ****
 36  39  40 0
 6-311+G(2d,p)
 ****
 1  2  3  4  5  16  17  18  19  20  21  22  23  24 0
 3-21G
 ****
 26  27  29  30  31  37  38  41  42  43  44  45  46  47 0
 3-21G
 ****
 48 0
 3-21G
 ****


