%nproc=1
%NoSave
%Mem=1900MB
#P OB98/GEN NMR

erre ene a

0 1
  C      368.253     286.288    -892.418
  O      367.616     287.531    -892.588
  H      367.889     285.830    -891.488
  H      369.338     286.436    -892.328
  H      368.036     285.622    -893.258
  P      367.998     288.366    -893.908
  C      370.338     288.697    -895.008
  O      369.577     288.684    -893.798
  C      371.821     288.609    -894.648
  O      372.102     287.361    -893.958
  C      372.749     288.621    -895.868
  O      372.929     289.927    -896.398
  C      374.018     288.028    -895.278
  O      374.803     289.019    -894.608
  C      373.470     286.986    -894.268
  N      376.379     282.814    -894.628
  C      376.555     283.992    -893.988
  N      375.733     285.066    -893.928
  C      374.595     284.800    -894.618
  C      374.262     283.660    -895.308
  C      375.219     282.618    -895.318
  N      375.051     281.449    -895.998
  N      373.029     283.781    -895.918
  C      372.616     284.988    -895.578
  N      373.529     285.651    -894.778
  O      367.318     289.791    -893.648
  O      367.553     287.760    -895.198
  H      375.662     288.589    -894.418
  H      366.471     289.852    -894.138
  H      377.503     284.095    -893.458
  H      371.671     285.438    -895.868
  H      374.034     287.008    -893.318
  H      374.636     287.577    -896.058
  H      372.350     287.932    -896.638
  H      372.070     289.454    -893.948
  H      370.150     289.632    -895.548
  H      370.045     287.843    -895.618
  H      375.808     280.768    -896.008
  H      374.245     281.330    -896.598
  P      373.384     290.048    -897.938
  C      375.545     289.219    -899.148
  O      374.952     289.806    -897.988
  O      373.221     291.604    -898.258
  O      372.591     289.185    -898.898
  H      372.936     291.720    -899.188
  H      376.602     289.133    -899.004
  H      375.350     289.837    -900.000
  H      375.127     288.247    -899.310

 6  7  8  9  10  11  12  13  14  15  25  28  32  33  34  35 0
 6-311+G(2d,p)
 ****
 36  37  40 0
 6-311+G(2d,p)
 ****
 1  2  3  4  5  16  17  18  19  20  21  22  23  24 0
 3-21G
 ****
 26  27  29  30  31  38  39 41  42  43  44  45  46  47  48 0
 3-21G
 ****


