%nproc=1
%NoSave
%Mem=1900MB
#P OB98/GEN NMR

erre ene a

0 1
  C       73.645     318.665    -898.290
  O       73.486     319.727    -897.340
  P       74.804     320.456    -896.780
  C       75.566     322.866    -896.220
  O       74.476     322.007    -896.530
  C       75.133     324.336    -896.270
  O       74.617     324.702    -897.590
  C       73.971     324.645    -895.330
  O       74.255     324.608    -893.940
  C       73.416     325.931    -895.890
  O       74.144     327.071    -895.450
  C       73.629     325.730    -897.430
  N       72.386     325.379    -898.130
  C       71.410     326.379    -898.160
  O       71.534     327.463    -897.600
  N       70.266     326.059    -898.840
  C       69.992     324.848    -899.430
  O       68.926     324.613    -900.000
  C       71.040     323.827    -899.330
  C       72.178     324.147    -898.700
  O       76.073     320.178    -897.500
  O       74.891     319.893    -895.270
  H       73.797     327.849    -895.940
  H       75.838     319.722    -895.070
  H       69.540     326.761    -898.870
  H       70.853     322.870    -899.780
  H       72.967     323.404    -898.620
  H       74.042     326.643    -897.880
  H       72.361     326.088    -895.600
  H       73.198     323.871    -895.490
  H       75.990     324.962    -896.060
  H       76.401     322.686    -896.930
  H       75.964     322.604    -895.230
  P       73.831     323.374    -893.000
  C       74.431     322.564    -890.590
  O       74.476     323.614    -891.540
  O       73.933     322.001    -893.560
  O       72.275     323.727    -892.700
  H       71.789     322.865    -892.610
  H       74.899     322.907    -889.660
  H       74.966     321.689    -890.960
  H       73.397     322.294    -890.380
  H       72.683     318.285    -898.564
  H       74.227     317.881    -897.854
  H       74.143     319.037    -899.161

 3  4  5  6  7  8  9  10  11  12  13  23  28  29  30  31  32 0
 6-311+G(2d,p)
 ****
 33  34 0
 6-311+G(2d,p)
 ****
 1  2  14  15  16  17  18  19  20  21  22  24  25  26  27 0
 3-21G
 ****
 35  36  37  38  39  40  41  42  43  44  45 0
 3-21G
 ****


