%nproc=1
%NoSave
%Mem=1900MB
#P OB98/GEN NMR

erre ene a

0 1
  C      208.194    -261.919      49.031
  O      208.633    -260.729      48.368
  P      209.640    -259.779      49.189
  C      211.742    -259.782      47.655
  O      211.133    -260.257      48.848
  C      212.708    -258.639      47.961
  O      213.756    -259.069      48.847
  C      213.425    -258.082      46.738
  O      212.602    -257.187      46.009
  C      214.584    -257.340      47.389
  O      214.149    -256.040      47.827
  C      214.913    -258.231      48.597
  N      219.919    -258.731      49.217
  C      219.081    -257.691      49.571
  N      219.659    -256.646      50.207
  N      217.798    -257.675      49.328
  C      217.355    -258.798      48.714
  C      218.082    -259.894      48.310
  C      219.509    -259.884      48.559
  O      220.301    -260.765      48.238
  N      217.282    -260.843      47.729
  C      216.068    -260.336      47.806
  N      216.060    -259.089      48.383
  O      209.434    -260.263      50.701
  O      209.367    -258.322      49.024
  H      213.935    -255.525      47.024
  H      209.641    -259.534      51.316
  H      220.902    -258.687      49.422
  H      215.167    -260.829      47.465
  H      215.086    -257.642      49.505
  H      215.422    -257.180      46.704
  H      220.626    -256.624      50.492
  H      213.809    -258.891      46.108
  H      219.054    -255.890      50.506
  H      212.141    -257.836      48.457
  H      210.974    -259.432      46.961
  H      212.259    -260.612      47.166
  P      211.940    -257.737      44.655
  C      209.542    -258.016      45.605
  O      210.710    -258.648      45.120
  O      213.023    -258.787      44.121
  O      211.634    -256.685      43.643
  H      212.980    -258.853      43.149
  H      209.275    -257.153      44.988
  H      209.701    -257.693      46.639
  H      208.717    -258.733      45.582
  H      207.534    -262.463      48.388
  H      207.679    -261.656      49.931
  H      209.041    -262.528      49.269

 3  4  5  6  7  8  9  10  11  12  23  26  30  31  33  0
 6-311+G(2d,p)
 ****
 35  36  37  38 0
 6-311+G(2d,p)
 ****
 1  2  13  14  15  16  17  18  19  20  21  22  24  25  27  28  29 0
 3-21G
 ****
 32  34  39  40  41  42  43  44  45  46  47  48  49 0
 3-21G
 ****


