%nproc=1
%NoSave
%Mem=1900MB
#P OB98/GEN NMR

erre ene a

0 1
  C     -499.283    -473.296    -263.316
  O     -499.507    -474.671    -263.097
  H     -499.774    -472.728    -262.523
  H     -499.697    -472.982    -264.280
  H     -498.210    -473.076    -263.286
  P     -498.979    -475.715    -264.196
  C     -500.987    -477.318    -263.896
  O     -499.580    -477.146    -263.794
  C     -501.381    -478.779    -263.623
  O     -500.615    -479.647    -264.508
  C     -501.096    -479.237    -262.180
  O     -502.071    -480.241    -261.854
  C     -499.720    -479.858    -262.327
  O     -499.382    -480.639    -261.211
  C     -499.878    -480.572    -263.676
  N     -498.602    -480.940    -264.264
  C     -497.896    -481.964    -263.619
  O     -498.355    -482.491    -262.606
  N     -496.680    -482.345    -264.122
  C     -496.177    -481.718    -265.134
  N     -494.960    -482.132    -265.576
  C     -496.861    -480.591    -265.814
  C     -498.059    -480.264    -265.331
  O     -497.509    -475.705    -264.451
  O     -499.806    -475.336    -265.514
  H     -499.398    -480.100    -260.387
  H     -499.225    -474.858    -266.140
  H     -496.386    -480.087    -266.642
  H     -498.638    -479.455    -265.759
  H     -500.490    -481.474    -263.566
  H     -498.954    -479.079    -262.402
  H     -501.136    -478.422    -261.455
  H     -502.438    -478.912    -263.882
  H     -494.522    -482.901    -265.080
  H     -501.277    -477.038    -264.916
  H     -494.458    -481.700    -266.345
  H     -501.504    -476.663    -263.187
  P     -503.295    -479.974    -260.856
  C     -503.244    -482.138    -259.444
  O     -503.943    -481.377    -260.426
  O     -504.284    -478.970    -261.359
  O     -502.613    -479.453    -259.496
  H     -503.225    -478.835    -259.052
  H     -503.778    -483.044    -259.248
  H     -503.165    -481.569    -258.541
  H     -502.264    -482.372    -259.805

 6  7  8  9  10  11  12  13  14  15  16  26  30  31  32  33  35 0
 6-311+G(2d,p)
 ****
 37  38 0
 6-311+G(2d,p)
 ****
 1  2  3  4  5  17  18  19  20  21  22  23  24  25 0
 3-21G
 ****
 27  28  29  34  36  39  40  41  42  43  44  45  46 0
 3-21G
 ****


