%nproc=1
%NoSave
%Mem=1900MB
#P OB98/GEN NMR

erre ene a

0 1
  C      -19.935     -51.202     -18.279
  O      -20.585     -49.947     -18.266
  H      -19.566     -51.414     -17.271
  H      -19.082     -51.180     -18.963
  H      -20.628     -51.996     -18.571
  P      -21.309     -49.437     -19.603
  C      -20.545     -48.506     -21.874
  O      -20.160     -48.828     -20.546
  C      -19.783     -47.278     -22.372
  O      -20.343     -46.094     -21.744
  C      -18.282     -47.314     -22.055
  O      -17.573     -46.744     -23.154
  C      -18.157     -46.410     -20.843
  O      -16.860     -45.826     -20.735
  C      -19.266     -45.388     -21.097
  N      -18.014     -42.172     -17.405
  C      -17.341     -42.503     -18.566
  N      -16.144     -41.910     -18.766
  N      -17.802     -43.346     -19.454
  C      -19.017     -43.854     -19.133
  C      -19.781     -43.606     -18.017
  C      -19.254     -42.683     -17.033
  O      -19.797     -42.360     -15.984
  N      -20.946     -44.334     -18.041
  C      -20.882     -45.023     -19.167
  N      -19.725     -44.774     -19.861
  O      -22.480     -48.531     -19.392
  O      -21.727     -50.785     -20.356
  H      -16.605     -45.522     -21.634
  H      -22.671     -50.981     -20.213
  H      -17.608     -41.523     -16.751
  H      -21.636     -45.714     -19.523
  H      -18.940     -44.572     -21.754
  H      -18.354     -46.985     -19.930
  H      -15.734     -41.240     -18.134
  H      -17.913     -48.324     -21.855
  H      -15.642     -42.120     -19.622
  H      -19.954     -47.176     -23.450
  H      -21.622     -48.298     -21.879
  H      -20.346     -49.362     -22.528
  P      -16.838     -47.723     -24.191
  C      -14.702     -49.164     -24.174
  O      -15.723     -48.555     -23.391
  O      -16.373     -47.089     -25.460
  O      -17.958     -48.837     -24.480
  H      -17.835     -49.181     -25.387
  H      -14.024     -49.686     -23.532
  H      -14.171     -48.410     -24.717
  H      -15.144     -49.854     -24.862

 6  7  8  9  10  11  12  13  14  15  26  29  33  34 0
 6-311+G(2d,p)
 ****
 36  38  39  40  41 0
 6-311+G(2d,p)
 ****
 1  2  3  4  5  16  17  18  19  20  21  22  23  24  25 0
 3-21G
 ****
 27  28  30  31  32  35  37  42  43  44  45  46  47 0
 3-21G
 ****
 48  49 0
 3-21G
 ****


