%nproc=1
%NoSave
%Mem=1900MB
#P OB98/GEN NMR

erre ene a

0 1
  C      -24.239    -533.434     362.330
  O      -24.495    -534.332     361.267
  P      -24.878    -535.856     361.575
  C      -24.781    -538.052     360.170
  O      -24.301    -536.735     360.365
  C      -24.029    -538.752     359.033
  O      -24.087    -537.891     357.874
  C      -22.554    -539.009     359.303
  O      -22.088    -540.003     358.387
  C      -21.939    -537.667     358.944
  O      -20.541    -537.765     358.672
  C      -22.814    -537.206     357.751
  N      -23.018    -535.744     357.761
  C      -21.877    -534.947     357.714
  O      -20.745    -535.413     357.590
  N      -22.068    -533.612     357.894
  C      -23.277    -533.020     358.167
  O      -23.397    -531.885     358.632
  C      -24.464    -533.871     357.975
  C      -24.284    -535.189     357.806
  O      -26.464    -535.877     361.336
  O      -24.516    -536.331     362.939
  H      -20.219    -536.856     358.478
  H      -26.929    -535.779     362.190
  H      -21.235    -533.051     358.007
  H      -25.440    -533.407     358.028
  H      -25.136    -535.840     357.704
  H      -22.353    -537.477     356.787
  H      -22.065    -536.981     359.786
  H      -22.323    -539.299     360.330
  H      -24.553    -539.690     358.786
  H      -25.854    -538.012     359.966
  H      -24.665    -538.628     361.090
  P      -20.764    -540.817     358.782
  C      -18.255    -540.627     358.239
  O      -19.539    -540.055     358.079
  O      -20.815    -542.292     358.559
  O      -20.560    -540.462     360.330
  H      -19.974    -541.117     360.749
  H      -17.645    -540.378     357.373
  H      -18.312    -541.718     358.337
  H      -17.790    -540.215     359.136
  H      -24.002    -532.469     361.933
  H      -23.415    -533.794     362.910
  H      -25.107    -533.360     362.951

 3  4  5  6  7  8  9  10  11  12  13  23  28  29  30  31  32 0
 6-311+G(2d,p)
 ****
 33  34 0
 6-311+G(2d,p)
 ****
 1  2  14  15  16  17  18  19  20  21  22  24  25  26  27 0
 3-21G
 ****
 35  36  37  38  39  40  41  42  43  44  45 0
 3-21G
 ****


