%nproc=1
%NoSave
%Mem=1900MB
#P OB98/GEN NMR

erre ene a

0 1
  C      292.027     272.510    -292.865
  O      291.069     271.643    -292.255
  P      290.893     270.151    -292.805
  C      291.641     268.793    -290.733
  O      290.562     269.171    -291.578
  C      291.104     268.258    -289.404
  O      290.626     269.329    -288.554
  C      289.902     267.339    -289.577
  O      290.143     266.079    -290.169
  C      289.282     267.349    -288.188
  O      289.929     266.423    -287.319
  C      289.559     268.804    -287.737
  N      288.369     269.652    -287.810
  C      288.101     270.425    -286.686
  O      288.781     270.386    -285.663
  N      286.996     271.230    -286.764
  C      286.134     271.307    -287.817
  O      285.145     272.028    -287.824
  C      286.454     270.448    -288.967
  C      287.538     269.672    -288.913
  O      291.955     269.672    -293.733
  O      289.481     270.225    -293.572
  H      289.610     266.601    -286.414
  H      289.562     269.708    -294.399
  H      286.792     271.806    -285.961
  H      285.789     270.476    -289.820
  H      287.794     269.030    -289.751
  H      289.920     268.823    -286.702
  H      288.225     267.078    -288.218
  H      289.189     267.841    -290.243
  H      291.918     267.756    -288.875
  H      292.296     269.650    -290.560
  H      292.248     268.039    -291.249
  P      288.972     265.089    -290.638
  C      289.374     265.124    -293.200
  O      289.427     264.378    -292.003
  O      287.573     265.603    -290.568
  O      289.128     263.890    -289.581
  H      288.242     263.517    -289.404
  H      289.700     264.481    -294.024
  H      290.041     265.987    -293.147
  H      288.349     265.452    -293.401
  H      292.011     273.461    -292.375
  H      291.785     272.638    -293.899
  H      293.003     272.081    -292.778

 3  4  5  6  7  8  9  10  11  12  13  23  28  29  30  31  32 0
 6-311+G(2d,p)
 ****
 33  34 0
 6-311+G(2d,p)
 ****
 1  2  14  15  16  17  18  19  20  21  22  24  25  26  27 0
 3-21G
 ****
 35  36  37  38  39  40  41  42  43  44  45 0
 3-21G
 ****


