%nproc=1
%NoSave
%Mem=1900MB
#P OB98/GEN NMR

erre ene a

0 1
  C      893.392     740.648     128.710
  O      893.822     741.381     127.574
  H      892.304     740.701     128.759
  H      893.799     741.091     129.625
  H      893.698     739.612     128.623
  P      895.410     741.533     127.386
  C      894.974     743.559     125.778
  O      895.596     743.083     126.971
  C      894.402     744.952     126.001
  O      893.292     744.901     126.923
  C      895.387     745.952     126.609
  O      896.334     746.454     125.689
  C      894.411     747.021     127.095
  O      893.954     747.784     125.961
  C      893.285     746.142     127.689
  N      893.463     745.861     129.113
  C      892.747     746.679     130.006
  O      892.033     747.585     129.590
  N      892.921     746.486     131.365
  C      893.706     745.521     131.791
  N      893.819     745.380     133.142
  C      894.467     744.634     130.892
  C      894.295     744.870     129.577
  O      895.700     740.765     126.010
  O      896.245     741.097     128.533
  H      893.453     747.160     125.386
  H      896.634     740.925     125.719
  H      895.121     743.874     131.281
  H      894.821     744.248     128.844
  H      892.307     746.621     127.551
  H      894.862     747.720     127.800
  H      895.891     745.508     127.488
  H      894.025     745.318     125.032
  H      893.341     746.054     133.737
  H      894.177     742.865     125.509
  H      894.513     744.779     133.565
  H      895.709     743.584     124.970
  P      897.605     747.235     126.274
  C      897.744     748.348     123.906
  O      897.848     748.508     125.330
  O      898.840     746.259     125.893
  O      897.564     747.528     127.753
  H      899.536     746.281     126.585
  H      897.933     749.286     123.427
  H      896.759     748.012     123.656
  H      898.462     747.627     123.575

 6  7  8  9  10  11  12  13  14  15  16  26  30  31  32  33  35 0
 6-311+G(2d,p)
 ****
 37  38 0
 6-311+G(2d,p)
 ****
 1  2  3  4  5  17  18  19  20  21  22  23  24  25 0
 3-21G
 ****
 27  28  29  34  36  39  40  41  42  43  44  45  46 0
 3-21G
 ****


