%nproc=1
%NoSave
%Mem=1900MB
#P OB98/GEN NMR

erre ene a

0 1
  C     -170.006     301.885      -9.420
  O     -171.032     301.651      -8.472
  H     -169.153     302.339      -8.910
  H     -170.360     302.569     -10.197
  H     -169.685     300.938      -9.867
  P     -172.368     300.958      -9.020
  C     -173.433     303.319      -9.068
  O     -173.538     301.978      -8.608
  C     -174.080     304.278      -8.071
  O     -175.461     303.932      -7.866
  C     -173.441     304.277      -6.686
  O     -172.269     305.075      -6.667
  C     -174.555     304.892      -5.857
  O     -174.551     306.323      -6.019
  C     -175.823     304.295      -6.506
  N     -178.738     302.617      -2.625
  C     -178.253     303.842      -2.917
  N     -177.448     304.210      -3.940
  C     -177.152     303.149      -4.715
  C     -177.575     301.839      -4.540
  C     -178.417     301.587      -3.445
  N     -178.922     300.336      -3.153
  N     -177.064     301.024      -5.529
  C     -176.390     301.837      -6.315
  N     -176.379     303.129      -5.844
  O     -172.565     299.531      -8.633
  O     -172.227     301.221     -10.594
  H     -175.181     306.694      -5.369
  H     -171.852     302.105     -10.759
  H     -178.550     304.639      -2.238
  H     -175.903     301.551      -7.242
  H     -176.633     305.032      -6.564
  H     -174.441     304.690      -4.792
  H     -173.253     303.255      -6.335
  H     -174.060     305.285      -8.509
  H     -173.900     303.431     -10.048
  H     -179.374     300.212      -2.260
  H     -178.581     299.550      -3.691
  H     -172.364     303.545      -9.168
  P     -171.040     304.698      -5.712
  C     -171.230     307.053      -4.684
  O     -170.365     306.091      -5.271
  O     -170.088     303.696      -6.264
  O     -171.725     304.187      -4.355
  H     -171.221     303.441      -3.980
  H     -170.671     307.930      -4.435
  H     -171.668     306.645      -3.797
  H     -172.003     307.308      -5.378

 6  7  8  9  10  11  12  13  14  15  25  28  32  33  34  35 0
 6-311+G(2d,p)
 ****
 36  39  40 0
 6-311+G(2d,p)
 ****
 1  2  3  4  5  16  17  18  19  20  21  22  23  24 0
 3-21G
 ****
 26  27  29  30  31  37  38  41  42  43  44  45  46  47 0
 3-21G
 ****
 48 0
 3-21G
 ****


