%nproc=1
%NoSave
%Mem=1900MB
#P OB98/GEN NMR

erre ene a

0 1
  C      544.535     302.710    -496.141
  O      544.851     302.622    -494.756
  H      543.572     303.192    -496.250
  H      544.493     301.711    -496.582
  H      545.293     303.312    -496.663
  P      546.240     301.947    -494.331
  C      544.662     300.064    -493.507
  O      545.920     300.401    -494.087
  C      544.571     298.575    -493.239
  O      544.394     297.858    -494.482
  C      545.814     297.986    -492.566
  O      545.777     298.231    -491.173
  C      545.653     296.519    -492.922
  O      544.649     295.916    -492.079
  C      545.148     296.613    -494.379
  N      548.385     293.779    -497.066
  C      547.499     293.415    -496.070
  N      547.518     292.100    -495.696
  N      546.695     294.248    -495.464
  C      546.841     295.518    -495.886
  C      547.690     296.011    -496.861
  C      548.533     295.065    -497.544
  O      549.322     295.349    -498.465
  N      547.614     297.383    -496.956
  C      546.680     297.715    -496.079
  N      546.195     296.615    -495.400
  O      546.975     302.591    -493.193
  O      547.099     301.941    -495.688
  H      544.897     296.135    -491.164
  H      547.660     302.734    -495.748
  H      548.993     293.082    -497.477
  H      546.327     298.720    -495.904
  H      544.459     295.793    -494.629
  H      546.573     295.943    -492.798
  H      548.293     291.501    -495.919
  H      546.743     298.362    -493.028
  H      546.909     291.830    -494.939
  H      543.675     298.393    -492.627
  H      543.880     300.379    -494.206
  H      544.529     300.622    -492.565
  P      547.074     297.952    -490.243
  C      545.576     296.737    -488.501
  O      546.690     296.640    -489.395
  O      547.513     299.112    -489.436
  O      548.169     297.398    -491.261
  H      548.728     298.108    -491.679
  H      545.434     295.799    -488.006
  H      544.695     296.985    -489.055
  H      545.767     297.499    -487.774

 6  7  8  9  10  11  12  13  14  15  26  29  33  34 0
 6-311+G(2d,p)
 ****
 36  38  39  40  41 0
 6-311+G(2d,p)
 ****
 1  2  3  4  5  16  17  18  19  20  21  22  23  24  25 0
 3-21G
 ****
 27  28  30  31  32  35  37  42  43  44  45  46  47 0
 3-21G
 ****
 48  49 0
 3-21G
 ****


