%nproc=1
%NoSave
%Mem=1900MB
#P OB98/GEN NMR

erre ene a

0 1
  C     -346.528     496.071     113.010
  O     -345.267     496.677     112.833
  H     -346.482     495.409     113.880
  H     -346.793     495.476     112.131
  H     -347.292     496.832     113.187
  P     -345.086     497.614     111.543
  C     -343.107     496.213     110.605
  O     -344.424     496.708     110.397
  C     -342.399     496.067     109.262
  O     -342.953     494.943     108.539
  C     -342.567     497.264     108.339
  O     -341.707     498.341     108.673
  C     -342.219     496.644     106.996
  O     -340.804     496.629     106.768
  C     -342.779     495.216     107.130
  N     -344.023     495.047     106.384
  C     -343.911     495.144     104.997
  O     -342.846     495.351     104.420
  N     -345.078     495.028     104.296
  C     -346.322     494.882     104.831
  O     -347.339     494.841     104.147
  C     -346.383     494.804     106.301
  C     -345.249     494.894     107.002
  O     -343.908     498.606     111.975
  O     -346.316     498.353     111.126
  H     -344.273     499.491     112.159
  H     -340.412     496.159     107.533
  H     -345.017     495.092     103.293
  H     -347.358     494.690     106.759
  H     -345.268     494.847     108.086
  H     -342.055     494.481     106.760
  H     -342.673     497.202     106.181
  H     -343.614     497.587     108.320
  H     -341.337     495.867     109.448
  H     -343.154     495.232     111.092
  H     -342.568     496.906     111.261
  P     -342.026     499.782     108.033
  C     -339.729     500.121     106.791
  O     -341.125     499.875     106.707
  O     -341.300     500.738     109.088
  O     -343.483     500.028     107.846
  H     -340.559     500.290     109.533
  H     -339.311     500.146     105.806
  H     -339.263     499.341     107.356
  H     -339.561     501.061     107.274

 6  7  8  9  10  11  12  13  14  15  16  27  31  32  33  34  35 0
 6-311+G(2d,p)
 ****
 36  37 0
 6-311+G(2d,p)
 ****
 1  2  3  4  5  17  18  19  20  21  22  23  24  25 0
 3-21G
 ****
 26  28  29  30  38  39  40  41  42  43  44  45 0
 3-21G
 ****


