%nproc=1
%NoSave
%Mem=1900MB
#P OB98/GEN NMR

erre ene a

0 1
  C      198.405    -339.309     185.854
  O      199.497    -339.670     186.676
  H      197.741    -338.624     186.387
  H      198.789    -338.804     184.964
  H      197.852    -340.200     185.543
  P      199.145    -340.455     188.030
  C      198.147    -342.799     188.527
  O      198.286    -341.739     187.593
  C      196.775    -343.449     188.383
  O      195.748    -342.549     188.844
  C      196.389    -343.814     186.953
  O      196.992    -345.030     186.539
  C      194.882    -343.961     187.097
  O      194.569    -345.242     187.678
  C      194.543    -342.837     188.087
  N      191.001    -339.145     188.110
  C      191.221    -340.189     188.936
  N      192.195    -341.119     188.878
  C      193.015    -340.877     187.841
  C      192.934    -339.842     186.926
  C      191.865    -338.946     187.083
  N      191.611    -337.917     186.187
  N      193.947    -339.935     185.990
  C      194.615    -341.018     186.326
  N      194.093    -341.618     187.441
  O      198.068    -339.493     188.727
  O      200.306    -340.727     188.927
  H      194.793    -345.915     187.009
  H      198.518    -338.935     189.388
  H      190.513    -340.298     189.754
  H      195.471    -341.408     185.794
  H      193.773    -343.138     188.806
  H      194.351    -343.902     186.142
  H      196.604    -342.997     186.258
  H      196.752    -344.336     189.030
  H      198.256    -342.407     189.544
  H      190.628    -337.668     186.124
  H      192.122    -337.987     185.315
  H      198.938    -343.534     188.342
  P      196.963    -345.377     184.972
  C      198.147    -344.335     182.922
  O      197.588    -344.110     184.210
  O      195.403    -345.305     184.620
  O      197.538    -346.705     184.605
  H      195.114    -346.151     184.225
  H      198.525    -343.413     182.531
  H      197.392    -344.717     182.267
  H      198.945    -345.044     182.998

 6  7  8  9  10  11  12  13  14  15  25  28  32  33  34  35 0
 6-311+G(2d,p)
 ****
 36  39  40 0
 6-311+G(2d,p)
 ****
 1  2  3  4  5  16  17  18  19  20  21  22  23  24 0
 3-21G
 ****
 26  27  29  30  31  37  38  41  42  43  44  45  46  47  48 0
 3-21G
 ****


