%nproc=1
%NoSave
%Mem=1900MB
#P OB98/GEN NMR

erre ene a

0 1
  C      -18.871    -189.709     -91.000
  O      -17.478    -189.519     -91.147
  H      -19.087    -189.927     -89.951
  H      -19.204    -190.551     -91.611
  H      -19.407    -188.801     -91.290
  P      -16.937    -189.243     -92.631
  C      -16.329    -186.745     -92.256
  O      -17.166    -187.682     -92.921
  C      -15.470    -186.010     -93.280
  O      -16.315    -185.401     -94.282
  C      -14.647    -184.870     -92.696
  O      -13.487    -185.332     -92.029
  C      -14.329    -184.073     -93.950
  O      -13.188    -184.607     -94.638
  C      -15.614    -184.248     -94.790
  N      -16.446    -183.051     -94.776
  C      -16.740    -182.504     -96.022
  O      -16.335    -182.983     -97.081
  N      -17.490    -181.360     -96.012
  C      -17.931    -180.702     -94.902
  O      -18.536    -179.640     -94.959
  C      -17.603    -181.334     -93.612
  C      -16.878    -182.456     -93.607
  O      -18.026    -189.966     -93.554
  O      -15.553    -189.734     -92.901
  H      -17.675    -190.816     -93.879
  H      -13.421    -185.524     -94.882
  H      -17.703    -180.942     -96.904
  H      -17.943    -180.839     -92.709
  H      -16.606    -182.927     -92.668
  H      -15.360    -184.470     -95.835
  H      -14.100    -183.034     -93.717
  H      -15.269    -184.254     -92.034
  H      -14.820    -186.742     -93.777
  H      -15.675    -187.273     -91.555
  H      -16.956    -186.044     -91.694
  P      -12.681    -184.306     -91.096
  C      -14.220    -184.803     -89.025
  O      -13.691    -183.855     -89.934
  O      -12.588    -183.028     -92.051
  O      -11.372    -184.833     -90.617
  H      -13.380    -182.906     -92.603
  H      -14.868    -184.309     -88.331
  H      -13.419    -185.272     -88.493
  H      -14.773    -185.544     -89.564

 6  7  8  9  10  11  12  13  14  15  16  27  31  32  33  34  35 0
 6-311+G(2d,p)
 ****
 36  37 0
 6-311+G(2d,p)
 ****
 1  2  3  4  5  17  18  19  20  21  22  23  24  25 0
 3-21G
 ****
 26  28  29  30  38  39  40  41  42  43  44  45 0
 3-21G
 ****


