%nproc=1
%NoSave
%Mem=1900MB
#P OB98/GEN NMR

erre ene a

0 1
  C        5.218    -403.382    -271.807
  O        4.779    -402.112    -272.243
  H        4.853    -404.139    -272.504
  H        4.814    -403.594    -270.814
  H        6.311    -403.424    -271.781
  P        5.392    -400.828    -271.504
  C        7.790    -400.407    -272.416
  O        6.401    -400.139    -272.547
  C        8.600    -399.212    -272.922
  O        9.997    -399.414    -272.559
  C        8.543    -399.017    -274.442
  O        8.556    -397.613    -274.720
  C        9.849    -399.630    -274.915
  O       10.293    -399.140    -276.175
  C       10.783    -399.250    -273.759
  N       11.989    -400.074    -273.717
  C       12.870    -399.975    -274.788
  O       12.751    -399.185    -275.724
  N       13.936    -400.840    -274.758
  C       14.184    -401.778    -273.802
  O       15.147    -402.535    -273.842
  C       13.214    -401.841    -272.699
  C       12.175    -400.999    -272.708
  O        6.368    -401.473    -270.414
  O        4.394    -399.896    -270.900
  H        5.889    -401.634    -269.580
  H       10.477    -398.186    -276.068
  H       14.581    -400.781    -275.528
  H       13.373    -402.582    -271.927
  H       11.428    -401.035    -271.921
  H       11.061    -398.194    -273.826
  H        9.745    -400.719    -274.991
  H        7.676    -399.484    -274.922
  H        8.262    -398.310    -272.397
  H        8.049    -401.288    -273.010
  H        8.022    -400.606    -271.363
  P        7.147    -396.913    -275.037
  C        6.239    -396.487    -272.615
  O        6.849    -395.958    -273.783
  O        6.141    -398.142    -274.848
  O        7.105    -396.259    -276.377
  H        6.415    -398.752    -274.139
  H        6.120    -395.708    -271.891
  H        6.857    -397.260    -272.209
  H        5.280    -396.891    -272.865

 6  7  8  9  10  11  12  13  14  15  16  27  31  32  33  34  35 0
 6-311+G(2d,p)
 ****
 36  37 0
 6-311+G(2d,p)
 ****
 1  2  3  4  5  17  18  19  20  21  22  23  24  25 0
 3-21G
 ****
 26  28  29  30  38  39  40  41  42  43  44  45 0
 3-21G
 ****


