%nproc=1
%NoSave
%Mem=1900MB
#P OB98/GEN NMR

erre ene a

0 1
  C      819.636    -898.200     799.171
  O      820.707    -897.480     798.596
  P      821.972    -898.250     797.950
  C      823.065    -896.090     797.087
  O      823.170    -897.190     797.983
  C      823.936    -894.920     797.581
  O      823.170    -894.170     798.556
  C      825.227    -895.320     798.295
  O      826.336    -895.590     797.425
  C      825.511    -894.040     799.094
  O      826.092    -893.050     798.218
  C      824.112    -893.620     799.535
  N      824.087    -892.450     804.511
  C      824.445    -891.740     803.418
  N      824.446    -892.120     802.111
  C      823.952    -893.390     802.019
  C      823.539    -894.210     803.034
  C      823.611    -893.710     804.350
  N      823.200    -894.400     805.462
  N      823.117    -895.420     802.525
  C      823.273    -895.330     801.215
  N      823.766    -894.090     800.865
  O      821.694    -898.890     796.625
  O      822.395    -899.310     799.077
  H      826.203    -892.240     798.737
  H      822.966    -900.000     798.685
  H      824.812    -890.730     803.603
  H      823.042    -896.090     800.506
  H      823.986    -892.530     799.519
  H      826.226    -894.220     799.914
  H      825.064    -896.150     798.999
  H      824.152    -894.270     796.739
  H      822.019    -895.760     797.069
  H      823.187    -893.930     806.326
  H      822.707    -895.290     805.306
  H      823.358    -896.410     796.072
  P      827.661    -896.190     798.097
  C      828.956    -894.760     796.330
  O      828.833    -895.200     797.666
  O      827.908    -897.640     797.808
  O      827.445    -895.870     799.664
  H      827.477    -894.920     799.892
  H      829.710    -893.970     796.273
  H      827.992    -894.330     795.979
  H      829.261    -895.580     795.684
  H      818.903    -897.514     799.541
  H      820.002    -898.800     799.978
  H      819.192    -898.831     798.430

 3  4  5  6  7  8  9  10  11  12  22  25  29  30  31  32 0
 6-311+G(2d,p)
 ****
 33  36  37 0
 6-311+G(2d,p)
 ****
 1  2  13  14  15  16  17  18  19  20  21  23  24  26 0
 3-21G
 ****
 27  28  34  35  38  39  40  41  42  43  44  45  46  47  48 0
 3-21G
 ****


