%nproc=1
%NoSave
%Mem=1900MB
#P OB98/GEN NMR

erre ene a

0 1
  C     -335.578    -573.203    -132.479
  O     -336.193    -572.293    -133.381
  P     -336.202    -572.578    -134.961
  C     -335.916    -570.029    -135.127
  O     -336.591    -571.172    -135.634
  C     -336.662    -568.758    -135.540
  O     -336.565    -568.621    -136.978
  C     -338.158    -568.732    -135.225
  O     -338.481    -568.324    -133.904
  C     -338.632    -567.665    -136.212
  O     -338.331    -566.356    -135.693
  C     -337.778    -567.965    -137.439
  N     -339.705    -568.239    -142.176
  C     -339.057    -567.249    -141.521
  N     -338.593    -567.254    -140.254
  C     -338.809    -568.442    -139.666
  C     -339.449    -569.545    -140.210
  C     -339.910    -569.417    -141.531
  N     -340.543    -570.433    -142.210
  N     -339.499    -570.581    -139.292
  C     -338.894    -570.102    -138.220
  N     -338.452    -568.824    -138.397
  O     -337.028    -573.749    -135.375
  O     -334.660    -572.741    -135.343
  H     -338.746    -566.290    -134.813
  H     -334.578    -573.179    -136.215
  H     -338.897    -566.342    -142.083
  H     -338.754    -570.652    -137.300
  H     -337.470    -567.052    -137.968
  H     -339.710    -567.695    -136.380
  H     -338.638    -569.691    -135.470
  H     -336.155    -567.900    -135.081
  H     -334.907    -570.010    -135.549
  H     -340.723    -570.300    -143.190
  H     -340.550    -571.352    -141.784
  H     -335.832    -570.098    -134.042
  P     -339.235    -569.391    -132.969
  C     -340.533    -567.410    -131.841
  O     -339.734    -568.566    -131.679
  O     -338.457    -570.622    -132.685
  O     -340.593    -569.665    -133.770
  H     -341.210    -568.916    -133.821
  H     -340.885    -567.096    -130.855
  H     -341.397    -567.615    -132.476
  H     -339.941    -566.603    -132.274
  H     -335.678    -572.836    -131.479
  H     -334.540    -573.299    -132.721
  H     -336.053    -574.159    -132.558

 3  4  5  6  7  8  9  10  11  12  22  25  29  30  31  32 0
 6-311+G(2d,p)
 ****
 33  36  37 0
 6-311+G(2d,p)
 ****
 1  2  13  14  15  16  17  18  19  20  21  23  24  26 0
 3-21G
 ****
 27  28  34  35  38  39  40  41  42  43  44  45  46  47  48 0
 3-21G
 ****


