%nproc=1
%NoSave
%Mem=1900MB
#P OB98/GEN NMR

erre ene a

0 1
  C      -19.264     192.734      73.688
  O      -20.154     191.789      73.124
  H      -19.158     192.524      74.754
  H      -19.662     193.745      73.565
  H      -18.282     192.659      73.210
  P      -20.433     191.914      71.548
  C      -21.418     193.879      70.158
  O      -21.466     193.127      71.365
  C      -22.720     194.656      69.986
  O      -23.814     193.737      69.771
  C      -23.112     195.478      71.207
  O      -22.384     196.689      71.303
  C      -24.601     195.684      70.957
  O      -24.834     196.782      70.068
  C      -25.012     194.364      70.292
  N      -29.474     192.180      71.466
  C      -29.096     192.958      70.427
  N      -27.879     193.490      70.180
  C      -27.001     193.122      71.128
  C      -27.240     192.332      72.241
  C      -28.547     191.844      72.397
  N      -28.942     191.073      73.464
  N      -26.096     192.209      73.005
  C      -25.179     192.907      72.363
  N      -25.679     193.471      71.221
  O      -21.309     190.613      71.233
  O      -19.211     191.982      70.693
  H      -24.605     197.590      70.566
  H      -20.740     189.922      70.843
  H      -29.873     193.191      69.706
  H      -24.152     193.034      72.682
  H      -25.690     194.522      69.448
  H      -25.126     195.888      71.889
  H      -22.988     194.880      72.120
  H      -22.631     195.298      69.097
  H      -21.292     193.197      69.309
  H      -20.561     194.561      70.199
  H      -29.911     190.817      73.546
  H      -28.289     190.915      74.220
  P      -21.998     197.213      72.769
  C      -23.239     198.495      74.670
  O      -23.251     198.043      73.325
  O      -20.889     198.334      72.493
  O      -21.502     196.153      73.695
  H      -20.221     198.321      73.208
  H      -24.144     199.028      74.875
  H      -22.401     199.143      74.821
  H      -23.163     197.655      75.328

 6  7  8  9  10  11  12  13  14  15  25  28  32  33  34  35 0
 6-311+G(2d,p)
 ****
 36  37  40 0
 6-311+G(2d,p)
 ****
 1  2  3  4  5  16  17  18  19  20  21  22  23  24 0
 3-21G
 ****
 26  27  29  30  31  38  39 41  42  43  44  45  46  47  48 0
 3-21G
 ****


