%nproc=1
%NoSave
%Mem=1900MB
#P OB98/GEN NMR

erre ene a

0 1
  C     -197.651    -174.395     363.021
  O     -198.896    -174.263     363.673
  H     -196.874    -173.943     363.645
  H     -197.682    -173.864     362.066
  H     -197.404    -175.447     362.855
  P     -200.100    -175.185     363.148
  C     -201.194    -175.109     365.500
  O     -200.714    -175.919     364.439
  C     -200.303    -175.261     366.734
  O     -198.967    -174.778     366.406
  C     -200.792    -174.483     367.965
  O     -200.513    -175.249     369.142
  C     -199.892    -173.261     367.969
  O     -199.787    -172.671     369.259
  C     -198.590    -173.868     367.456
  N     -195.561    -170.194     369.045
  C     -196.209    -171.191     369.747
  N     -196.084    -171.174     371.094
  N     -196.928    -172.129     369.181
  C     -196.956    -172.035     367.826
  C     -196.363    -171.099     367.016
  C     -195.584    -170.058     367.658
  O     -195.007    -169.138     367.092
  N     -196.684    -171.315     365.700
  C     -197.482    -172.371     365.719
  N     -197.678    -172.840     366.988
  O     -199.331    -176.357     362.375
  O     -201.093    -174.499     362.271
  H     -199.304    -171.825     369.174
  H     -199.277    -176.147     361.425
  H     -195.036    -169.491     369.529
  H     -197.954    -172.817     364.857
  H     -198.062    -174.440     368.230
  H     -200.277    -172.508     367.272
  H     -195.524    -170.509     371.598
  H     -201.859    -174.228     367.935
  H     -196.519    -171.923     371.617
  H     -200.206    -176.332     366.966
  H     -202.212    -175.420     365.756
  H     -201.217    -174.064     365.175
  P     -201.676    -176.185     369.726
  C     -200.895    -178.669     369.672
  O     -201.588    -177.617     369.011
  O     -203.005    -175.545     369.096
  O     -201.739    -176.218     371.218
  H     -203.743    -175.629     369.728
  H     -200.927    -179.552     369.068
  H     -201.360    -178.865     370.615
  H     -199.876    -178.381     369.829

 6  7  8  9  10  11  12  13  14  15  26  29  33  34 0
 6-311+G(2d,p)
 ****
 36  38  39  40  41 0
 6-311+G(2d,p)
 ****
 1  2  3  4  5  16  17  18  19  20  21  22  23  24  25 0
 3-21G
 ****
 27  28  30  31  32  35  37  42  43  44  45  46  47 0
 3-21G
 ****
 48  49 0
 3-21G
 ****


