%nproc=1
%NoSave
%Mem=1900MB
#P OB98/GEN NMR

erre ene a

0 1
  C      -90.151    -673.851    -377.405
  O      -91.335    -674.495    -376.937
  P      -91.319    -675.149    -375.470
  C      -89.759    -677.015    -376.353
  O      -90.942    -676.707    -375.616
  C      -89.578    -678.542    -376.454
  O      -89.394    -679.083    -375.121
  C      -90.777    -679.305    -377.055
  O      -90.822    -679.477    -378.462
  C      -90.573    -680.692    -376.443
  O      -89.625    -681.436    -377.236
  C      -89.994    -680.400    -375.065
  N      -92.186    -683.417    -371.570
  C      -91.225    -683.653    -372.484
  N      -90.701    -682.790    -373.379
  C      -91.253    -681.572    -373.258
  C      -92.244    -681.183    -372.366
  C      -92.724    -682.180    -371.491
  N      -93.702    -681.938    -370.559
  N      -92.561    -679.851    -372.547
  C      -91.792    -679.461    -373.538
  N      -90.965    -680.454    -374.000
  O      -92.502    -674.847    -374.613
  O      -89.983    -674.537    -374.837
  H      -90.119    -681.794    -377.991
  H      -90.138    -674.353    -373.888
  H      -90.834    -684.659    -372.512
  H      -91.800    -678.458    -373.963
  H      -89.198    -681.109    -374.796
  H      -91.501    -681.274    -376.436
  H      -91.718    -678.877    -376.699
  H      -88.684    -678.756    -377.039
  H      -88.892    -676.574    -375.858
  H      -94.033    -682.715    -370.003
  H      -94.149    -681.030    -370.535
  H      -89.851    -676.531    -377.323
  P      -91.491    -678.374    -379.414
  C      -92.599    -680.237    -380.871
  O      -91.761    -679.116    -380.815
  O      -90.722    -677.099    -379.531
  O      -92.951    -678.214    -378.803
  H      -93.529    -678.994    -378.915
  H      -92.829    -680.459    -381.922
  H      -93.544    -680.056    -380.339
  H      -92.090    -681.108    -380.438
  H      -90.318    -673.469    -378.390
  H      -89.347    -674.556    -377.428
  H      -89.900    -673.045    -376.748

 3  4  5  6  7  8  9  10  11  12  22  25  29  30  31  32 0
 6-311+G(2d,p)
 ****
 33  36  37 0
 6-311+G(2d,p)
 ****
 1  2  13  14  15  16  17  18  19  20  21  23  24  26 0
 3-21G
 ****
 27  28  34  35  38  39  40  41  42  43  44  45  46  47  48 0
 3-21G
 ****


