%nproc=1
%NoSave
%Mem=1900MB
#P OB98/GEN NMR

erre ene a

0 1
  C     -819.484     792.146     120.390
  O     -818.489     792.074     119.397
  P     -817.815     793.396     118.774
  C     -815.945     793.386     120.549
  O     -817.069     794.084     120.008
  C     -814.652     794.051     120.046
  O     -814.705     795.457     120.376
  C     -813.367     793.520     120.706
  O     -812.825     792.353     120.109
  C     -812.421     794.702     120.457
  O     -811.948     794.671     119.092
  C     -813.351     795.913     120.657
  N     -810.885     799.184     123.712
  C     -810.738     798.895     122.407
  N     -811.434     798.000     121.650
  C     -812.368     797.405     122.408
  C     -812.628     797.589     123.769
  C     -811.822     798.525     124.416
  N     -811.973     798.844     125.763
  N     -813.647     796.769     124.170
  C     -814.011     796.105     123.084
  N     -813.260     796.447     122.003
  O     -818.763     794.255     118.022
  O     -816.615     792.848     117.875
  H     -811.263     795.360     119.004
  H     -816.322     793.530     117.246
  H     -809.974     799.473     121.860
  H     -814.793     795.358     123.070
  H     -813.134     796.730     119.945
  H     -811.524     794.706     121.080
  H     -813.469     793.402     121.787
  H     -814.596     793.945     118.969
  H     -815.974     792.365     120.172
  H     -811.480     799.620     126.102
  H     -812.790     798.480     126.226
  H     -815.992     793.372     121.629
  P     -812.294     791.187     121.078
  C     -813.705     789.177     120.171
  O     -813.523     790.154     121.182
  O     -811.771     791.665     122.410
  O     -811.214     790.421     120.192
  H     -811.580     789.955     119.420
  H     -814.473     788.460     120.467
  H     -812.773     788.631     119.964
  H     -814.043     789.643     119.235
  H     -819.791     791.157     120.660
  H     -820.325     792.690     120.014
  H     -819.093     792.645     121.252

 3  4  5  6  7  8  9  10  11  12  22  25  29  30  31  32 0
 6-311+G(2d,p)
 ****
 33  36  37 0
 6-311+G(2d,p)
 ****
 1  2  13  14  15  16  17  18  19  20  21  23  24  26 0
 3-21G
 ****
 27  28  34  35  38  39  40  41  42  43  44  45  46  47  48 0
 3-21G
 ****


