%nproc=1
%NoSave
%Mem=1900MB
#P OB98/GEN NMR

erre ene a

0 1
  C     -367.371     923.589    -952.831
  O     -367.054     924.158    -954.096
  H     -367.922     922.660    -952.996
  H     -367.995     924.263    -952.244
  H     -366.454     923.365    -952.277
  P     -366.376     925.619    -954.119
  C     -367.035     927.838    -952.974
  O     -367.491     926.618    -953.540
  C     -368.137     928.451    -952.102
  O     -368.365     927.599    -950.933
  C     -367.762     929.817    -951.542
  O     -367.895     930.815    -952.548
  C     -368.742     929.927    -950.387
  O     -370.032     930.318    -950.827
  C     -368.741     928.482    -949.854
  N     -367.836     928.290    -948.710
  C     -368.157     929.010    -947.551
  O     -369.147     929.753    -947.523
  N     -367.337     928.893    -946.463
  C     -366.288     928.109    -946.510
  N     -365.511     928.056    -945.394
  C     -365.938     927.328    -947.701
  C     -366.740     927.461    -948.760
  O     -365.767     926.045    -955.415
  O     -365.296     925.543    -952.936
  H     -370.001     931.294    -950.955
  H     -364.442     925.227    -953.265
  H     -365.051     926.690    -947.704
  H     -366.543     926.925    -949.670
  H     -369.743     928.178    -949.539
  H     -368.397     930.666    -949.652
  H     -366.744     929.790    -951.141
  H     -369.064     928.489    -952.682
  H     -365.787     928.613    -944.603
  H     -366.799     928.518    -953.801
  H     -364.731     927.403    -945.291
  H     -366.121     927.674    -952.387
  P     -367.378     932.303    -952.274
  C     -368.188     934.161    -950.667
  O     -368.552     933.019    -951.417
  O     -366.920     933.058    -953.468
  O     -366.218     932.102    -951.174
  H     -365.406     931.728    -951.577
  H     -369.046     934.537    -950.150
  H     -367.810     934.915    -951.326
  H     -367.432     933.896    -949.957

 6  7  8  9  10  11  12  13  14  15  16  26  30  31  32  33  35 0
 6-311+G(2d,p)
 ****
 37  38 0
 6-311+G(2d,p)
 ****
 1  2  3  4  5  17  18  19  20  21  22  23  24  25 0
 3-21G
 ****
 27  28  29  34  36  39  40  41  42  43  44  45  46 0
 3-21G
 ****


