%nproc=1
%NoSave
%Mem=1900MB
#P OB98/GEN NMR

erre ene a

0 1
  C      838.274     117.941     333.622
  O      839.435     117.682     334.390
  H      838.308     118.985     333.276
  H      837.380     117.807     334.239
  H      838.232     117.279     332.750
  P      839.672     116.170     334.845
  C      839.396     116.809     337.382
  O      838.988     115.994     336.289
  C      838.204     117.168     338.252
  O      837.047     117.477     337.446
  C      837.717     116.022     339.139
  O      838.598     115.761     340.211
  C      836.364     116.576     339.584
  O      836.516     117.546     340.638
  C      835.871     117.254     338.277
  N      834.859     116.455     337.584
  C      833.575     116.494     338.147
  O      833.354     117.181     339.154
  N      832.587     115.744     337.568
  C      832.846     115.032     336.509
  N      831.823     114.299     335.990
  C      834.177     114.983     335.869
  C      835.131     115.703     336.467
  O      841.236     116.149     335.195
  O      839.246     115.131     333.859
  H      837.034     118.274     340.258
  H      841.504     116.838     335.829
  H      834.340     114.381     335.000
  H      836.143     115.730     336.061
  H      835.441     118.240     338.502
  H      835.709     115.790     339.967
  H      837.537     115.122     338.543
  H      838.453     118.056     338.842
  H      830.927     114.340     336.467
  H      839.907     117.706     337.027
  H      831.913     113.683     335.207
  H      840.124     116.231     337.965
  P      839.504     114.423     340.210
  C      838.065     113.629     342.198
  O      838.618     113.291     340.920
  O      840.876     114.591     340.765
  O      839.474     113.961     338.676
  H      838.578     113.774     338.325
  H      837.498     112.802     342.571
  H      837.427     114.482     342.096
  H      838.857     113.855     342.881

 6  7  8  9  10  11  12  13  14  15  16  26  30  31  32  33  35 0
 6-311+G(2d,p)
 ****
 37  38 0
 6-311+G(2d,p)
 ****
 1  2  3  4  5  17  18  19  20  21  22  23  24  25 0
 3-21G
 ****
 27  28  29  34  36  39  40  41  42  43  44  45  46 0
 3-21G
 ****


