%nproc=1
%NoSave
%Mem=1900MB
#P OB98/GEN NMR

erre ene a

0 1
  C      771.390    -384.056    -242.332
  O      769.979    -384.256    -242.285
  P      769.332    -385.330    -243.286
  C      768.466    -386.970    -241.457
  O      769.334    -386.760    -242.568
  C      768.821    -388.270    -240.742
  O      770.218    -388.341    -240.399
  C      768.077    -388.465    -239.424
  O      766.766    -388.979    -239.634
  C      768.946    -389.513    -238.743
  O      768.648    -390.819    -239.274
  C      770.354    -389.083    -239.166
  N      772.078    -388.805    -234.347
  C      771.397    -389.771    -235.008
  N      770.959    -389.766    -236.285
  C      771.294    -388.619    -236.897
  C      771.980    -387.541    -236.353
  C      772.377    -387.667    -235.013
  N      773.064    -386.672    -234.338
  N      772.134    -386.535    -237.279
  C      771.563    -386.997    -238.372
  N      771.034    -388.255    -238.189
  O      770.456    -385.485    -244.413
  O      768.023    -384.905    -243.870
  H      767.681    -390.926    -239.240
  H      770.030    -385.642    -245.283
  H      771.189    -390.668    -234.441
  H      771.517    -386.470    -239.321
  H      771.008    -389.940    -239.372
  H      768.785    -389.561    -237.665
  H      768.065    -387.539    -238.831
  H      768.590    -389.110    -241.414
  H      767.426    -386.991    -241.797
  H      773.341    -386.852    -233.399
  H      773.322    -385.832    -234.842
  H      768.547    -386.115    -240.783
  P      765.687    -387.986    -240.288
  C      765.660    -389.240    -242.570
  O      765.951    -388.047    -241.866
  O      766.217    -386.542    -239.854
  O      764.285    -388.234    -239.844
  H      765.468    -385.920    -239.770
  H      765.600    -389.018    -243.635
  H      764.705    -389.663    -242.244
  H      766.463    -389.969    -242.400
  H      771.669    -383.316    -241.612
  H      771.671    -383.726    -243.310
  H      771.888    -384.976    -242.109

 3  4  5  6  7  8  9  10  11  12  22  25  29  30  31  32 0
 6-311+G(2d,p)
 ****
 33  36  37 0
 6-311+G(2d,p)
 ****
 1  2  13  14  15  16  17  18  19  20  21  23  24  26 0
 3-21G
 ****
 27  28  34  35  38  39  40  41  42  43  44  45  46  47  48 0
 3-21G
 ****


