%nproc=1
%NoSave
%Mem=1900MB
#P OB98/GEN NMR

erre ene a

0 1
  C     -179.252      71.838      -0.629
  O     -179.280      70.412      -0.652
  P     -180.290      69.511       0.193
  C     -178.325      68.754       1.756
  O     -179.440      68.391       0.956
  C     -177.894      67.647       2.731
  O     -179.016      67.286       3.580
  C     -177.505      66.379       1.969
  O     -176.203      66.246       1.430
  C     -177.915      65.236       2.886
  O     -176.842      64.783       3.714
  C     -179.025      65.853       3.740
  N     -182.546      62.257       4.660
  C     -181.271      62.380       5.173
  N     -180.855      61.396       5.998
  N     -180.467      63.369       4.887
  C     -180.976      64.237       3.983
  C     -182.215      64.210       3.388
  C     -183.120      63.141       3.756
  O     -184.264      62.990       3.339
  N     -182.371      65.246       2.502
  C     -181.220      65.883       2.541
  N     -180.339      65.311       3.433
  O     -181.510      69.057      -0.533
  O     -180.766      70.498       1.378
  H     -176.719      65.434       4.426
  H     -181.691      70.254       1.590
  H     -183.131      61.486       4.933
  H     -180.973      66.759       1.954
  H     -178.856      65.661       4.807
  H     -178.241      64.368       2.299
  H     -181.378      60.550       6.163
  H     -178.173      66.310       1.101
  H     -179.853      61.368       6.203
  H     -177.113      68.004       3.406
  H     -178.608      69.657       2.303
  H     -177.482      69.029       1.118
  P     -175.789      66.438      -0.105
  C     -177.252      64.515      -0.962
  O     -175.934      65.023      -0.837
  O     -174.205      66.646      -0.056
  O     -176.456      67.581      -0.800
  H     -173.885      67.026      -0.895
  H     -177.203      63.447      -1.182
  H     -177.764      65.026      -1.784
  H     -177.816      64.664      -0.034
  H     -178.483      72.190      -1.284
  H     -179.054      72.175       0.367
  H     -180.198      72.219      -0.953

 3  4  5  6  7  8  9  10  11  12  23  26  30  31 0
 6-311+G(2d,p)
 ****
 33  35  36  37  38 0
 6-311+G(2d,p)
 ****
 1  2  13  14  15  16  17  18  19  20  21  22  24  25 0
 3-21G
 ****
 27  28  29  32  34  39  40  41  42  43  44  45  46  47  48  49 0
 3-21G
 ****


