%nproc=1
%NoSave
%Mem=1900MB
#P OB98/GEN NMR

erre ene a

0 1
  C      -35.222    -899.491    -578.207
  O      -35.020    -898.101    -578.410
  P      -35.037    -897.051    -577.188
  C      -33.033    -895.431    -577.464
  O      -33.528    -896.631    -576.832
  C      -31.799    -895.741    -578.356
  O      -32.164    -896.581    -579.479
  C      -31.139    -894.511    -578.982
  O      -30.376    -893.791    -578.010
  C      -30.317    -895.141    -580.092
  O      -29.077    -895.681    -579.596
  C      -31.252    -896.301    -580.556
  N      -31.966    -895.981    -581.776
  C      -31.248    -896.011    -582.969
  O      -30.027    -896.241    -582.936
  N      -31.881    -895.771    -584.146
  C      -33.128    -895.431    -584.149
  N      -33.723    -895.191    -585.358
  C      -33.931    -895.321    -582.917
  C      -33.303    -895.601    -581.760
  O      -35.819    -897.501    -576.004
  O      -35.668    -895.701    -577.813
  H      -28.650    -896.161    -580.315
  H      -36.125    -895.221    -577.112
  H      -34.984    -894.991    -582.921
  H      -33.797    -895.521    -580.823
  H      -30.664    -897.211    -580.724
  H      -30.085    -894.441    -580.866
  H      -31.908    -893.861    -579.399
  H      -31.077    -896.301    -577.743
  H      -33.146    -895.311    -586.188
  H      -32.737    -894.701    -576.695
  H      -34.702    -894.941    -585.464
  H      -33.823    -895.001    -578.093
  P      -31.060    -892.611    -577.147
  C      -30.604    -893.031    -574.679
  O      -31.507    -893.221    -575.748
  O      -32.109    -891.831    -577.878
  O      -29.812    -891.681    -576.772
  H      -30.126    -890.751    -576.704
  H      -31.152    -893.101    -573.722
  H      -30.096    -892.051    -574.717
  H      -29.807    -893.821    -574.703
  H      -35.171    -900.000    -579.147
  H      -36.184    -899.651    -577.767
  H      -34.463    -899.870    -577.554

 3  4  5  6  7  8  9  10  11  12  13  23  27  28  29  30  32 0
 6-311+G(2d,p)
 ****
 34  35 0
 6-311+G(2d,p)
 ****
 1  2  14  15  16  17  18  19  20  21  22  24  25  26 0
 3-21G
 ****
 31  33  36  37  38  39  40  41  42  43  44  45  46 0
 3-21G
 ****


