%nproc=1
%NoSave
%Mem=1900MB
#P OB98/GEN NMR

erre ene a

0 1
  C     -892.639     349.820     290.280
  O     -892.499     351.218     290.089
  P     -893.617     352.178     290.727
  C     -895.792     353.296     289.867
  O     -894.850     352.249     289.701
  C     -896.644     353.465     288.599
  O     -895.825     354.024     287.542
  C     -897.231     352.149     288.083
  O     -898.520     352.402     287.488
  C     -896.289     351.756     286.957
  O     -896.921     350.886     286.024
  C     -895.915     353.128     286.406
  N     -893.809     352.192     281.902
  C     -895.131     352.371     282.226
  N     -896.035     352.181     281.231
  N     -895.556     352.705     283.426
  C     -894.553     352.844     284.327
  C     -893.193     352.707     284.114
  C     -892.750     352.326     282.794
  O     -891.584     352.128     282.446
  N     -892.485     352.965     285.255
  C     -893.410     353.216     286.178
  N     -894.675     353.120     285.657
  O     -892.943     353.630     290.602
  O     -893.970     351.871     292.146
  H     -896.274     350.711     285.301
  H     -892.637     353.927     291.482
  H     -893.537     351.921     280.974
  H     -893.211     353.445     287.211
  H     -896.703     353.521     285.744
  H     -895.412     351.238     287.367
  H     -895.783     351.870     280.305
  H     -897.334     351.366     288.835
  H     -897.013     352.266     281.450
  H     -897.437     354.189     288.811
  H     -895.260     354.229     290.063
  H     -896.437     353.084     290.722
  P     -899.472     351.123     287.301
  C     -899.875     349.439     285.354
  O     -899.269     350.634     285.793
  O     -900.942     351.766     287.301
  O     -899.308     350.075     288.356
  H     -901.602     351.099     287.601
  H     -900.599     349.670     284.577
  H     -900.389     348.915     286.176
  H     -899.110     348.782     284.951
  H     -891.827     349.312     289.803
  H     -893.564     349.493     289.854
  H     -892.631     349.601     291.327

 3  4  5  6  7  8  9  10  11  12  23  26  30  31 0
 6-311+G(2d,p)
 ****
 33  35  36  37  38 0
 6-311+G(2d,p)
 ****
 1  2  13  14  15  16  17  18  19  20  21  22  24  25 0
 3-21G
 ****
 27  28  29  32  34  39  40  41  42  43  44  45  46  47  48  49 0
 3-21G
 ****


