%nproc=1
%NoSave
%Mem=1900MB
#P OB98/GEN NMR

erre ene a

0 1
  C      286.018    -230.054     182.968
  O      285.802    -231.437     183.185
  H      285.063    -229.531     183.058
  H      286.421    -229.892     181.964
  H      286.710    -229.658     183.714
  P      287.095    -232.382     183.113
  C      286.420    -233.813     185.184
  O      286.665    -233.773     183.789
  C      285.254    -234.758     185.496
  O      284.001    -234.044     185.263
  C      285.219    -236.017     184.614
  O      284.591    -237.067     185.367
  C      284.296    -235.579     183.487
  O      283.862    -236.685     182.727
  C      283.253    -234.820     184.300
  N      278.476    -233.938     182.697
  C      278.981    -234.854     183.549
  N      280.263    -235.018     183.937
  C      281.056    -234.096     183.364
  C      280.681    -233.097     182.483
  C      279.318    -233.035     182.141
  N      278.804    -232.112     181.269
  N      281.783    -232.343     182.101
  C      282.798    -232.881     182.746
  N      282.410    -233.947     183.514
  O      288.090    -231.731     184.182
  O      287.725    -232.504     181.765
  H      283.241    -236.401     182.023
  H      288.706    -231.122     183.735
  H      278.263    -235.548     183.975
  H      283.830    -232.548     182.691
  H      282.597    -235.496     184.858
  H      284.814    -234.908     182.797
  H      286.206    -236.344     184.284
  H      285.275    -235.015     186.562
  H      286.183    -232.802     185.527
  H      287.322    -234.165     185.703
  H      277.818    -232.146     181.064
  H      279.425    -231.442     180.832
  P      285.345    -237.662     186.657
  C      283.267    -238.278     188.122
  O      284.382    -238.728     187.368
  O      285.281    -236.428     187.677
  O      286.758    -238.097     186.438
  H      286.040    -236.469     188.291
  H      282.742    -239.121     188.520
  H      282.612    -237.716     187.489
  H      283.606    -237.657     188.925

 6  7  8  9  10  11  12  13  14  15  25  28  32  33  34  35 0
 6-311+G(2d,p)
 ****
 36  37  40 0
 6-311+G(2d,p)
 ****
 1  2  3  4  5  16  17  18  19  20  21  22  23  24 0
 3-21G
 ****
 26  27  29  30  31  38  39 41  42  43  44  45  46  47  48 0
 3-21G
 ****


