%nproc=1
%NoSave
%Mem=1900MB
#P OB98/GEN NMR

erre ene a

0 1
  C     -892.380    -897.820    -899.374
  O     -892.640    -896.580    -898.754
  P     -893.910    -896.510    -897.764
  C     -892.660    -895.620    -895.644
  O     -893.330    -896.730    -896.274
  C     -892.550    -895.850    -894.154
  O     -893.870    -895.800    -893.564
  C     -891.900    -897.180    -893.744
  O     -891.090    -896.950    -892.584
  C     -893.070    -898.040    -893.364
  O     -892.680    -899.090    -892.464
  C     -894.040    -897.000    -892.774
  N     -895.420    -897.460    -892.784
  C     -895.680    -898.720    -892.224
  O     -894.750    -899.410    -891.834
  N     -896.980    -899.170    -892.164
  C     -897.920    -898.470    -892.724
  N     -899.200    -898.960    -892.654
  C     -897.660    -897.200    -893.444
  C     -896.420    -896.740    -893.394
  O     -894.670    -897.870    -898.064
  O     -894.780    -895.310    -897.954
  H     -892.070    -899.690    -892.974
  H     -895.640    -897.760    -897.944
  H     -898.500    -896.670    -893.904
  H     -896.150    -895.810    -893.864
  H     -893.750    -896.760    -891.734
  H     -893.510    -898.500    -894.254
  H     -891.270    -897.600    -894.544
  H     -891.980    -895.010    -893.724
  H     -899.320    -899.840    -892.184
  H     -893.250    -894.720    -895.814
  H     -900.000    -898.490    -893.044
  H     -891.680    -895.510    -896.114
  P     -889.870    -897.950    -892.324
  C     -888.050    -896.250    -892.964
  O     -888.700    -897.460    -893.304
  O     -890.380    -899.290    -893.064
  O     -889.490    -898.240    -890.894
  H     -889.750    -900.000    -892.924
  H     -887.200    -896.120    -893.624
  H     -887.700    -896.280    -891.934
  H     -888.750    -895.400    -893.094
  H     -891.517    -897.732    -900.000
  H     -893.223    -898.106    -899.967
  H     -892.202    -898.563    -898.624

 3  4  5  6  7  8  9  10  11  12  13  21  23  27  28  29  30  32 0
 6-311+G(2d,p)
 ****
 34  35 0
 6-311+G(2d,p)
 ****
 1  2  14  15  16  17  18  19  20  22  24  25  26 0
 3-21G
 ****
 31  33  36  37  38  39  40  41  42  43  44  45  46 0
 3-21G
 ****


