%nproc=1
%NoSave
%Mem=1900MB
#P OB98/GEN NMR

erre ene a

0 1
  C     -266.868     471.126     526.944
  O     -266.184     471.769     528.016
  P     -265.388     473.115     527.660
  C     -267.104     474.694     528.816
  O     -266.463     474.315     527.599
  C     -268.427     475.415     528.521
  O     -269.212     474.744     527.517
  C     -269.328     475.534     529.742
  O     -268.888     476.598     530.576
  C     -270.687     475.789     529.093
  O     -270.861     477.182     528.795
  C     -270.614     474.968     527.795
  N     -274.946     472.514     526.813
  C     -274.659     473.867     526.771
  N     -275.674     474.680     526.376
  N     -273.496     474.368     527.076
  C     -272.583     473.447     527.439
  C     -272.748     472.077     527.508
  C     -274.042     471.526     527.163
  O     -274.339     470.338     527.173
  N     -271.570     471.450     527.867
  C     -270.754     472.451     528.148
  N     -271.291     473.674     527.845
  O     -264.970     472.903     526.121
  O     -264.205     473.360     528.531
  H     -270.291     477.424     528.043
  H     -264.007     472.772     526.064
  H     -275.856     472.182     526.586
  H     -269.754     472.334     528.541
  H     -271.038     475.495     526.943
  H     -271.510     475.519     529.755
  H     -276.592     474.359     526.129
  H     -269.351     474.589     530.294
  H     -275.471     475.681     526.329
  H     -268.178     476.423     528.149
  H     -266.458     475.354     529.398
  H     -267.286     473.805     529.421
  P     -267.941     476.244     531.807
  C     -265.804     477.274     530.757
  O     -266.458     476.106     531.245
  O     -268.359     474.738     532.165
  O     -268.093     477.136     533.001
  H     -268.432     474.638     533.140
  H     -264.714     477.145     530.907
  H     -266.134     478.169     531.275
  H     -266.001     477.365     529.685
  H     -267.356     470.246     527.309
  H     -266.165     470.855     526.184
  H     -267.597     471.794     526.534

 3  4  5  6  7  8  9  10  11  12  23  26  30  31 0
 6-311+G(2d,p)
 ****
 33  35  36  37  38 0
 6-311+G(2d,p)
 ****
 1  2  13  14  15  16  17  18  19  20  21  22  24  25 0
 3-21G
 ****
 27  28  29  32  34  39  40  41  42  43  44  45  46  47  48  49 0
 3-21G
 ****


