%nproc=1
%NoSave
%Mem=1900MB
#P OB98/GEN NMR

erre ene a

0 1
  C      535.894     443.382    -892.400
  O      535.141     443.410    -893.610
  P      535.570     444.468    -894.730
  C      537.040     442.899    -896.260
  O      536.983     443.969    -895.340
  C      538.369     442.909    -897.030
  O      538.395     444.089    -897.880
  C      539.631     442.989    -896.180
  O      540.750     442.565    -896.960
  C      539.729     444.481    -895.920
  O      541.049     444.854    -895.480
  C      539.260     445.085    -897.270
  N      538.556     446.367    -897.130
  C      539.290     447.547    -897.140
  O      540.512     447.600    -897.280
  N      538.585     448.705    -896.970
  C      537.224     448.810    -896.830
  O      536.650     449.866    -896.580
  C      536.476     447.551    -896.960
  C      537.143     446.395    -897.100
  O      535.951     445.787    -893.890
  O      534.529     444.734    -895.750
  H      541.665     444.535    -896.190
  H      535.255     446.459    -893.990
  H      539.109     449.573    -896.910
  H      535.402     447.590    -896.930
  H      536.611     445.464    -897.180
  H      540.125     445.261    -897.940
  H      539.039     444.770    -895.120
  H      539.580     442.415    -895.250
  H      538.403     442.046    -897.690
  H      536.193     442.970    -896.950
  H      536.944     441.948    -895.720
  P      541.214     441.030    -896.830
  C      541.213     440.539    -899.360
  O      540.626     440.263    -898.100
  O      540.995     440.392    -895.490
  O      542.782     441.115    -897.180
  H      543.228     440.322    -896.840
  H      541.125     439.646    -900.000
  H      542.273     440.794    -899.240
  H      540.679     441.369    -899.830
  H      535.496     442.631    -891.750
  H      535.835     444.337    -891.921
  H      536.916     443.157    -892.621

 3  4  5  6  7  8  9  10  11  12  13  23  28  29  30  31  32 0
 6-311+G(2d,p)
 ****
 33  34 0
 6-311+G(2d,p)
 ****
 1  2  14  15  16  17  18  19  20  21  22  24  25  26  27 0
 3-21G
 ****
 35  36  37  38  39  40  41  42  43  44  45 0
 3-21G
 ****


