%nproc=1
%NoSave
%Mem=1900MB
#P OB98/GEN NMR

erre ene a

0 1
  C      -14.330      58.463      29.967
  O      -15.402      59.157      30.570
  H      -14.249      57.477      30.431
  H      -13.388      58.998      30.119
  H      -14.517      58.330      28.899
  P      -15.657      60.684      30.143
  C      -16.383      61.700      27.872
  O      -15.712      60.640      28.536
  C      -15.618      62.103      26.614
  O      -14.291      62.565      26.940
  C      -15.400      60.976      25.608
  O      -16.569      60.632      24.885
  C      -14.337      61.612      24.728
  O      -14.948      62.583      23.860
  C      -13.442      62.301      25.787
  N      -12.290      61.491      26.176
  C      -11.072      61.791      25.552
  O      -11.002      62.696      24.721
  N       -9.968      61.032      25.856
  C      -10.073      60.049      26.694
  N       -8.959      59.299      26.924
  C      -11.330      59.708      27.386
  C      -12.388      60.457      27.081
  O      -14.725      61.697      30.724
  O      -17.193      60.948      30.509
  H      -14.255      62.897      23.251
  H      -17.397      61.886      30.274
  H      -11.366      58.873      28.070
  H      -13.352      60.257      27.536
  H      -13.085      63.271      25.422
  H      -13.814      60.891      24.092
  H      -14.969      60.096      26.096
  H      -16.150      62.949      26.161
  H       -8.128      59.535      26.399
  H      -16.464      62.540      28.568
  H       -9.023      58.372      27.331
  H      -17.388      61.384      27.578
  P      -16.638      59.171      24.219
  C      -17.074      56.838      25.293
  O      -16.465      58.113      25.413
  O      -15.253      59.076      23.427
  O      -17.821      58.914      23.341
  H      -15.361      59.348      22.494
  H      -16.864      56.259      26.168
  H      -16.686      56.337      24.431
  H      -18.132      56.957      25.190

 6  7  8  9  10  11  12  13  14  15  16  26  30  31  32  33  35 0
 6-311+G(2d,p)
 ****
 37  38 0
 6-311+G(2d,p)
 ****
 1  2  3  4  5  17  18  19  20  21  22  23  24  25 0
 3-21G
 ****
 27  28  29  34  36  39  40  41  42  43  44  45  46 0
 3-21G
 ****


