%nproc=1
%NoSave
%Mem=1900MB
#P OB98/GEN NMR

erre ene a

0 1
  C     -523.142    -584.424    -199.432
  O     -523.574    -584.631    -200.790
  P     -522.709    -583.999    -201.987
  C     -524.593    -582.767    -203.307
  O     -523.620    -583.796    -203.295
  C     -525.603    -582.958    -204.448
  O     -524.900    -583.218    -205.701
  C     -526.589    -584.124    -204.244
  O     -527.824    -583.751    -204.861
  C     -525.931    -585.245    -205.017
  O     -526.833    -586.296    -205.360
  C     -525.386    -584.473    -206.217
  N     -524.340    -585.173    -206.966
  C     -524.710    -585.875    -208.108
  O     -525.875    -585.997    -208.500
  N     -523.693    -586.476    -208.798
  C     -522.367    -586.481    -208.436
  O     -521.509    -587.072    -209.081
  C     -522.047    -585.744    -207.201
  C     -523.035    -585.141    -206.539
  O     -521.778    -585.241    -202.414
  O     -521.861    -582.821    -201.619
  H     -527.409    -585.963    -206.069
  H     -520.860    -584.935    -202.522
  H     -523.944    -586.985    -209.636
  H     -521.009    -585.726    -206.895
  H     -522.805    -584.577    -205.647
  H     -526.216    -584.226    -206.897
  H     -525.128    -585.687    -204.412
  H     -526.751    -584.366    -203.185
  H     -526.151    -582.022    -204.586
  H     -524.105    -581.800    -203.425
  H     -525.120    -582.766    -202.335
  P     -529.027    -583.231    -203.923
  C     -530.506    -585.384    -203.771
  O     -530.327    -584.092    -204.306
  O     -529.313    -581.798    -204.597
  O     -528.684    -583.139    -202.475
  H     -529.350    -581.847    -205.569
  H     -530.221    -585.423    -202.717
  H     -529.921    -586.104    -204.336
  H     -531.560    -585.645    -203.854
  H     -523.824    -584.907    -198.763
  H     -523.118    -583.375    -199.221
  H     -522.163    -584.836    -199.302

 3  4  5  6  7  8  9  10  11  12  13  23  28  29  30  31  32 0
 6-311+G(2d,p)
 ****
 33  34 0
 6-311+G(2d,p)
 ****
 1  2  14  15  16  17  18  19  20  21  22  24  25  26 0
 3-21G
 ****
 27  35  36  37  38  39  40  41  42  43  44  45 0
 3-21G
 ****


