%nproc=1
%NoSave
%Mem=1900MB
#P OB98/GEN NMR

erre ene a

0 1
  C     -145.237     332.549     143.900
  O     -145.621     333.435     144.929
  H     -144.994     331.582     144.342
  H     -144.349     332.932     143.388
  H     -146.049     332.411     143.180
  P     -146.205     334.874     144.532
  C     -148.613     333.948     144.432
  O     -147.734     334.900     145.012
  C     -149.955     333.924     145.174
  O     -150.938     333.245     144.334
  C     -149.920     333.176     146.523
  O     -150.899     333.794     147.371
  C     -150.357     331.788     146.091
  O     -150.672     330.957     147.179
  C     -151.488     332.171     145.127
  N     -151.973     331.095     144.272
  C     -153.340     331.040     144.011
  O     -154.166     331.838     144.450
  N     -153.749     330.007     143.211
  C     -152.949     329.059     142.646
  O     -153.370     328.176     141.910
  C     -151.517     329.164     142.963
  C     -151.100     330.164     143.742
  O     -145.977     335.302     143.122
  O     -145.494     335.867     145.570
  H     -144.761     336.333     145.126
  H     -151.405     331.363     147.690
  H     -154.735     329.954     143.008
  H     -150.854     328.422     142.541
  H     -150.048     330.274     143.986
  H     -152.332     332.588     145.689
  H     -149.543     331.289     145.559
  H     -148.942     333.212     147.008
  H     -150.306     334.955     145.303
  H     -148.139     332.963     144.497
  H     -148.770     334.199     143.378
  P     -150.524     334.644     148.679
  C     -151.191     336.985     147.798
  O     -151.474     335.939     148.721
  O     -149.071     334.961     148.800
  O     -151.027     333.760     149.916
  H     -150.496     333.974     150.705
  H     -151.894     337.780     147.933
  H     -151.265     336.609     146.799
  H     -150.200     337.352     147.968

 6  7  8  9  10  11  12  13  14  15  16  27  31  32  33  34  35 0
 6-311+G(2d,p)
 ****
 36  37 0
 6-311+G(2d,p)
 ****
 1  2  3  4  5  17  18  19  20  21  22  23  24  25 0
 3-21G
 ****
 26  28  29  30  38  39  40  41  42  43  44  45 0
 3-21G
 ****


