%nproc=1
%NoSave
%Mem=1900MB
#P OB98/GEN NMR

erre ene a

0 1
  C     -107.824     -62.517       9.189
  O     -108.927     -61.654       8.915
  P     -109.528     -61.619       7.430
  C     -111.379     -60.089       8.365
  O     -110.465     -60.324       7.299
  C     -111.536     -58.590       8.627
  O     -110.261     -57.946       8.825
  C     -112.185     -57.842       7.472
  O     -113.580     -58.104       7.422
  C     -111.806     -56.408       7.793
  O     -112.699     -55.841       8.767
  C     -110.397     -56.572       8.404
  N     -109.328     -56.188       7.494
  C     -109.189     -54.815       7.255
  O     -109.971     -54.014       7.768
  N     -108.179     -54.391       6.425
  C     -107.383     -55.260       5.882
  N     -106.400     -54.779       5.074
  C     -107.503     -56.713       6.098
  C     -108.493     -57.104       6.902
  O     -110.135     -62.895       6.949
  O     -108.253     -61.213       6.542
  H     -113.595     -56.133       8.508
  H     -108.351     -61.610       5.654
  H     -106.811     -57.398       5.625
  H     -108.653     -58.153       7.111
  H     -110.300     -55.959       9.309
  H     -111.850     -55.768       6.906
  H     -111.719     -58.147       6.525
  H     -112.135     -58.464       9.539
  H     -106.348     -53.780       4.931
  H     -111.018     -60.589       9.268
  H     -105.703     -55.371       4.644
  H     -112.342     -60.551       8.114
  P     -114.231     -58.395       5.985
  C     -115.823     -60.147       7.043
  O     -115.696     -58.999       6.225
  O     -113.391     -59.654       5.456
  O     -114.156     -57.255       5.021
  H     -113.295     -59.599       4.489
  H     -116.868     -60.236       7.357
  H     -115.195     -60.071       7.935
  H     -115.548     -61.037       6.475
  H     -107.545     -62.423      10.218
  H     -106.996     -62.245       8.568
  H     -108.105     -63.530       8.987

 3  4  5  6  7  8  9  10  11  12  13  23  27  28  29  30  32 0
 6-311+G(2d,p)
 ****
 34  35 0
 6-311+G(2d,p)
 ****
 1  2  14  15  16  17  18  19  20  21  22  24  25  26 0
 3-21G
 ****
 31  33  36  37  38  39  40  41  42  43  44  45  46 0
 3-21G
 ****


