%nproc=1
%NoSave
%Mem=1900MB
#P OB98/GEN NMR

erre ene a

0 1
  C      403.241      66.573    -247.384
  O      403.499      66.870    -248.742
  H      403.645      65.583    -247.160
  H      402.167      66.571    -247.191
  H      403.733      67.306    -246.742
  P      402.934      68.271    -249.288
  C      400.755      67.445    -250.390
  O      402.095      67.876    -250.601
  C      400.212      66.756    -251.646
  O      400.326      67.676    -252.765
  C      400.972      65.476    -252.019
  O      400.051      64.528    -252.559
  C      401.915      65.945    -253.119
  O      402.333      64.878    -253.961
  C      401.058      67.009    -253.805
  N      400.906      71.125    -256.808
  C      399.960      70.502    -256.080
  N      400.091      69.417    -255.286
  C      401.376      69.016    -255.242
  C      402.453      69.550    -255.930
  C      402.181      70.652    -256.758
  N      403.132      71.274    -257.528
  N      403.600      68.827    -255.655
  C      403.227      67.882    -254.815
  N      401.880      67.950    -254.548
  O      403.952      69.344    -249.483
  O      401.783      68.598    -248.226
  H      403.130      65.164    -254.458
  H      401.218      67.818    -248.055
  H      398.955      70.925    -256.155
  H      403.871      67.132    -254.377
  H      400.336      66.579    -254.522
  H      402.805      66.393    -252.676
  H      401.509      65.036    -251.181
  H      399.141      66.556    -251.506
  H      400.118      68.305    -250.141
  H      402.852      72.058    -258.097
  H      404.088      70.943    -257.502
  H      400.753      66.753    -249.544
  P      399.743      63.189    -251.744
  C      401.242      61.397    -252.831
  O      399.922      61.930    -252.719
  O      398.473      63.190    -250.952
  O      401.016      63.060    -250.775
  H      400.723      62.784    -249.883
  H      401.235      60.566    -253.505
  H      401.579      61.073    -251.868
  H      401.901      62.153    -253.204

 6  7  8  9  10  11  12  13  14  15  25  28  32  33  34  35 0
 6-311+G(2d,p)
 ****
 36  39  40 0
 6-311+G(2d,p)
 ****
 1  2  3  4  5  16  17  18  19  20  21  22  23  24 0
 3-21G
 ****
 26  27  29  30  31  37  38  41  42  43  44  45  46  47 0
 3-21G
 ****
 48 0
 3-21G
 ****


