%nproc=1
%NoSave
%Mem=1900MB
#P OB98/GEN NMR

erre ene a

0 1
  C     -226.228     138.416     104.098
  O     -227.038     139.430     104.658
  H     -226.830     137.510     103.988
  H     -225.383     138.197     104.758
  H     -225.860     138.712     103.111
  P     -226.438     140.909     104.804
  C     -224.544     142.007     106.162
  O     -225.366     140.858     105.996
  C     -223.247     141.621     106.870
  O     -223.526     141.161     108.212
  C     -222.486     140.485     106.192
  O     -221.821     140.945     105.033
  C     -221.578     140.040     107.329
  O     -220.450     140.919     107.462
  C     -222.520     140.181     108.552
  N     -223.135     138.907     108.944
  C     -222.759     138.403     110.186
  O     -221.955     138.966     110.928
  N     -223.308     137.196     110.527
  C     -224.101     136.426     109.725
  O     -224.390     135.260     109.985
  C     -224.524     137.044     108.462
  C     -224.020     138.233     108.125
  O     -227.441     142.007     104.901
  O     -225.516     141.069     103.503
  H     -225.991     141.596     102.834
  H     -219.898     140.555     108.178
  H     -223.005     136.798     111.404
  H     -225.206     136.490     107.827
  H     -224.293     138.695     107.182
  H     -221.970     140.575     109.416
  H     -221.186     139.032     107.179
  H     -223.175     139.664     105.949
  H     -222.616     142.518     106.947
  H     -225.084     142.739     106.769
  H     -224.334     142.442     105.180
  P     -220.912     139.961     104.156
  C     -218.588     138.889     104.297
  O     -219.563     139.670     104.972
  O     -220.699     140.390     102.743
  O     -221.681     138.555     104.216
  H     -221.827     138.230     103.306
  H     -217.735     138.758     104.930
  H     -218.292     139.388     103.398
  H     -219.002     137.933     104.054

 6  7  8  9  10  11  12  13  14  15  16  27  31  32  33  34  35 0
 6-311+G(2d,p)
 ****
 36  37 0
 6-311+G(2d,p)
 ****
 1  2  3  4  5  17  18  19  20  21  22  23  24  25 0
 3-21G
 ****
 26  28  29  30  38  39  40  41  42  43  44  45 0
 3-21G
 ****


