%nproc=1
%NoSave
%Mem=1900MB
#P OB98/GEN NMR

erre ene a

0 1
  C      157.037     810.986     720.144
  O      157.968     811.122     721.223
  P      157.891     810.130     722.474
  C      159.498     809.129     724.227
  O      159.365     810.008     723.110
  C      160.948     808.703     724.381
  O      161.377     807.874     723.279
  C      161.945     809.858     724.416
  O      161.885     810.580     725.635
  C      163.260     809.116     724.166
  O      163.751     808.528     725.373
  C      162.819     808.031     723.181
  N      163.210     808.332     721.799
  C      164.488     807.895     721.428
  O      165.224     807.345     722.233
  N      164.864     808.075     720.105
  C      164.111     808.744     719.304
  N      164.516     808.845     717.994
  C      162.823     809.375     719.715
  C      162.432     809.116     720.952
  O      157.210     808.816     722.193
  O      157.098     810.948     723.591
  H      156.375     810.408     723.939
  H      164.085     809.268     725.926
  H      162.279     809.982     719.001
  H      161.513     809.503     721.347
  H      163.240     807.070     723.451
  H      164.046     809.803     723.790
  H      161.739     810.541     723.573
  H      161.022     808.098     725.314
  H      165.383     808.389     717.743
  H      158.868     808.253     724.044
  H      163.863     809.063     717.248
  H      159.139     809.642     725.120
  P      162.891     811.831     725.776
  C      163.050     813.936     727.300
  O      162.299     812.790     726.925
  O      162.653     812.667     724.428
  O      164.324     811.476     725.950
  H      163.489     813.053     724.130
  H      162.384     814.641     727.800
  H      163.504     814.427     726.443
  H      163.840     813.630     727.998
  H      157.240     811.730     719.402
  H      156.041     811.113     720.514
  H      157.135     810.013     719.709

 3  4  5  6  7  8  9  10  11  12  13  24  27  28  29  30  32 0
 6-311+G(2d,p)
 ****
 34  35 0
 6-311+G(2d,p)
 ****
 1  2  14  15  16  17  18  19  20  21  22  23  25  26 0
 3-21G
 ****
 31  33  36  37  38  39  40  41  42  43  44  45  46 0
 3-21G
 ****


