%nproc=1
%NoSave
%Mem=1900MB
#P OB98/GEN NMR

erre ene a

0 1
  C     -834.425    1115.318     201.093
  O     -835.195    1114.851     202.219
  P     -836.778    1114.789     202.056
  C     -837.241    1117.078     203.211
  O     -837.374    1116.281     202.043
  C     -837.548    1118.537     202.905
  O     -838.822    1118.698     202.243
  C     -837.635    1119.430     204.148
  O     -836.336    1119.826     204.574
  C     -838.388    1120.620     203.604
  O     -837.501    1121.480     202.869
  C     -839.388    1119.966     202.645
  N     -843.917    1122.040     203.892
  C     -842.804    1122.558     203.318
  N     -841.631    1121.959     203.050
  C     -841.687    1120.654     203.393
  C     -842.745    1119.977     203.962
  C     -843.909    1120.731     204.221
  N     -845.035    1120.185     204.793
  N     -842.426    1118.655     204.190
  C     -841.190    1118.533     203.737
  N     -840.700    1119.717     203.245
  O     -837.268    1114.214     203.464
  O     -837.243    1113.910     200.926
  H     -837.063    1120.926     202.187
  H     -838.056    1113.645     203.346
  H     -842.860    1123.627     203.062
  H     -840.619    1117.619     203.723
  H     -839.561    1120.559     201.730
  H     -838.841    1121.235     204.390
  H     -838.206    1118.939     204.940
  H     -836.768    1118.918     202.229
  H     -836.234    1116.981     203.622
  H     -845.852    1120.775     204.924
  H     -845.052    1119.196     205.039
  H     -837.918    1116.689     203.984
  P     -835.579    1118.860     205.622
  C     -836.496    1120.217     207.638
  O     -836.404    1118.971     206.983
  O     -834.215    1119.655     205.915
  O     -835.337    1117.486     205.100
  H     -833.493    1119.019     206.115
  H     -837.315    1120.193     208.350
  H     -836.677    1121.025     206.922
  H     -835.548    1120.410     208.177
  H     -833.385    1115.307     201.343
  H     -834.722    1116.316     200.847
  H     -834.597    1114.678     200.253

 3  4  5  6  7  8  9  10  11  12  22  25  29  30  31  32 0
 6-311+G(2d,p)
 ****
 33  36  37 0
 6-311+G(2d,p)
 ****
 1  2  13  14  15  16  17  18  19  20  21  23  24  26 0
 3-21G
 ****
 27  28  34  35  38  39  40  41  42  43  44  45  46  47  48 0
 3-21G
 ****


