%nproc=1
%NoSave
%Mem=1900MB
#P OB98/GEN NMR

erre ene a

0 1
  C     -152.798    -259.157     -52.205
  O     -153.314    -259.127     -53.518
  H     -153.195    -260.038     -51.694
  H     -153.116    -258.262     -51.663
  H     -151.707    -259.217     -52.209
  P     -152.629    -258.159     -54.593
  C     -154.729    -256.885     -55.386
  O     -153.513    -256.820     -54.658
  C     -155.398    -255.508     -55.468
  O     -156.595    -255.599     -56.279
  C     -155.838    -255.044     -54.079
  O     -155.847    -253.622     -53.965
  C     -157.263    -255.560     -53.984
  O     -158.048    -254.864     -53.022
  C     -157.735    -255.382     -55.427
  N     -162.147    -255.939     -57.912
  C     -161.424    -254.790     -57.664
  N     -161.957    -253.634     -58.121
  N     -160.289    -254.774     -57.015
  C     -159.916    -255.992     -56.551
  C     -160.560    -257.196     -56.713
  C     -161.794    -257.207     -57.467
  O     -162.487    -258.194     -57.703
  N     -159.885    -258.215     -56.084
  C     -158.838    -257.626     -55.540
  N     -158.806    -256.278     -55.809
  O     -152.956    -258.859     -55.998
  O     -151.157    -257.937     -54.422
  H     -158.967    -255.181     -53.106
  H     -152.295    -258.605     -56.666
  H     -163.007    -255.897     -58.431
  H     -158.078    -258.127     -54.952
  H     -158.090    -254.356     -55.592
  H     -157.230    -256.610     -53.674
  H     -162.902    -253.576     -58.467
  H     -155.208    -255.457     -53.290
  H     -161.601    -252.771     -57.702
  H     -154.733    -254.792     -55.965
  H     -155.385    -257.588     -54.861
  H     -154.552    -257.287     -56.387
  P     -154.679    -252.938     -53.109
  C     -155.871    -252.711     -50.785
  O     -154.889    -253.351     -51.574
  O     -155.043    -251.383     -53.154
  O     -153.310    -253.210     -53.638
  H     -154.441    -250.911     -53.760
  H     -155.858    -253.121     -49.797
  H     -156.835    -252.864     -51.222
  H     -155.663    -251.662     -50.738

 6  7  8  9  10  11  12  13  14  15  26  29  33  34 0
 6-311+G(2d,p)
 ****
 36  38  39  40  41 0
 6-311+G(2d,p)
 ****
 1  2  3  4  5  16  17  18  19  20  21  22  23  24  25 0
 3-21G
 ****
 27  28  30  31  32  35  37  42  43  44  45  46  47 0
 3-21G
 ****
 48  49 0
 3-21G
 ****


