%nproc=1
%NoSave
%Mem=1900MB
#P OB98/GEN NMR

erre ene a

0 1
  C      411.147    -148.242     -34.156
  O      411.889    -147.095     -33.791
  H      411.504    -149.090     -33.570
  H      411.297    -148.457     -35.217
  H      410.084    -148.090     -33.952
  P      411.463    -145.707     -34.473
  C      409.116    -145.597     -33.372
  O      410.409    -145.015     -33.474
  C      408.173    -144.683     -32.595
  O      406.822    -145.236     -32.657
  C      408.532    -144.516     -31.111
  O      408.200    -143.176     -30.721
  C      407.563    -145.463     -30.418
  O      407.363    -145.134     -29.046
  C      406.330    -145.281     -31.303
  N      402.001    -146.478     -29.036
  C      402.699    -145.285     -29.066
  N      402.163    -144.250     -28.386
  N      403.825    -145.124     -29.705
  C      404.231    -146.234     -30.369
  C      403.636    -147.472     -30.414
  C      402.400    -147.646     -29.679
  O      401.748    -148.683     -29.599
  N      404.373    -148.346     -31.177
  C      405.408    -147.635     -31.590
  N      405.366    -146.351     -31.123
  O      410.559    -146.185     -35.703
  O      412.590    -144.835     -34.911
  H      406.898    -144.271     -29.009
  H      411.100    -146.262     -36.512
  H      401.144    -146.553     -28.515
  H      406.210    -148.003     -32.214
  H      405.804    -144.341     -31.098
  H      407.938    -146.493     -30.473
  H      401.276    -144.286     -27.908
  H      409.580    -144.723     -30.873
  H      402.634    -143.356     -28.430
  H      408.136    -143.710     -33.099
  H      409.198    -146.555     -32.849
  H      408.721    -145.775     -34.378
  P      409.194    -142.414     -29.722
  C      411.027    -141.750     -31.442
  O      409.999    -141.317     -30.565
  O      410.317    -143.521     -29.425
  O      408.552    -141.929     -28.466
  H      410.707    -143.365     -28.545
  H      411.463    -140.902     -31.927
  H      410.614    -142.408     -32.178
  H      411.779    -142.267     -30.883

 6  7  8  9  10  11  12  13  14  15  26  29  33  34 0
 6-311+G(2d,p)
 ****
 36  38  39  40  41 0
 6-311+G(2d,p)
 ****
 1  2  3  4  5  16  17  18  19  20  21  22  23  24  25 0
 3-21G
 ****
 27  28  30  31  32  35  37  42  43  44  45  46  47 0
 3-21G
 ****
 48  49 0
 3-21G
 ****


