%nproc=1
%NoSave
%Mem=1900MB
#P OB98/GEN NMR

erre ene a

0 1
  C     -285.083     -77.418      69.262
  O     -283.706     -77.714      69.367
  H     -285.271     -76.951      68.291
  H     -285.379     -76.721      70.049
  H     -285.675     -78.334      69.333
  P     -283.217     -78.406      70.729
  C     -283.464     -80.985      70.609
  O     -282.654     -79.856      70.317
  C     -283.266     -82.073      69.552
  O     -284.112     -81.777      68.406
  C     -281.821     -82.187      69.045
  O     -281.518     -83.569      68.823
  C     -281.871     -81.473      67.704
  O     -280.825     -81.892      66.833
  C     -283.273     -81.848      67.237
  N     -283.165     -81.037      62.272
  C     -282.614     -82.056      63.026
  N     -281.922     -83.004      62.359
  N     -282.727     -82.134      64.326
  C     -283.468     -81.133      64.862
  C     -284.055     -80.065      64.228
  C     -283.902     -79.975      62.789
  O     -284.348     -79.087      62.070
  N     -284.690     -79.244      65.128
  C     -284.486     -79.817      66.300
  N     -283.752     -80.966      66.189
  O     -284.585     -78.746      71.488
  O     -282.294     -77.590      71.569
  H     -279.984     -81.515      67.171
  H     -284.462     -78.721      72.456
  H     -283.038     -81.018      61.274
  H     -284.841     -79.441      67.251
  H     -283.322     -82.871      66.841
  H     -281.783     -80.390      67.852
  H     -281.820     -83.027      61.357
  H     -281.082     -81.753      69.723
  H     -281.521     -83.768      62.891
  H     -283.615     -83.028      69.962
  H     -284.515     -80.678      70.622
  H     -283.195     -81.375      71.595
  P     -280.790     -84.370      70.010
  C     -282.738     -84.604      71.709
  O     -281.884     -85.254      70.781
  O     -280.441     -83.210      71.061
  O     -279.559     -85.097      69.580
  H     -279.482     -83.042      71.058
  H     -283.408     -85.319      72.139
  H     -283.301     -83.846      71.205
  H     -282.149     -84.157      72.483

 6  7  8  9  10  11  12  13  14  15  26  29  33  34 0
 6-311+G(2d,p)
 ****
 36  38  39  40  41 0
 6-311+G(2d,p)
 ****
 1  2  3  4  5  16  17  18  19  20  21  22  23  24  25 0
 3-21G
 ****
 27  28  30  31  32  35  37  42  43  44  45  46  47 0
 3-21G
 ****
 48  49 0
 3-21G
 ****


