%nproc=1
%NoSave
%Mem=1900MB
#P OB98/GEN NMR

erre ene a

0 1
  C      192.664      83.180    -171.178
  O      191.949      82.952    -169.966
  P      192.588      81.971    -168.874
  C      192.485      83.665    -166.844
  O      192.136      82.421    -167.411
  C      191.499      84.000    -165.712
  O      190.305      84.605    -166.251
  C      191.060      82.776    -164.914
  O      191.959      82.475    -163.862
  C      189.684      83.194    -164.434
  O      189.796      84.093    -163.316
  C      189.144      83.940    -165.676
  N      188.484      83.145    -166.734
  C      187.270      82.514    -166.470
  O      186.686      82.564    -165.392
  N      186.718      81.813    -167.510
  C      187.150      81.816    -168.803
  O      186.581      81.217    -169.706
  C      188.350      82.619    -169.062
  C      188.957      83.222    -168.037
  O      194.146      82.317    -168.917
  O      192.329      80.517    -169.124
  H      188.898      84.405    -163.106
  H      194.657      81.548    -169.231
  H      185.877      81.292    -167.317
  H      188.701      82.688    -170.083
  H      189.848      83.819    -168.218
  H      188.434      84.721    -165.379
  H      189.114      82.339    -164.078
  H      190.937      81.916    -165.578
  H      191.976      84.728    -165.043
  H      192.470      84.455    -167.598
  H      193.507      83.618    -166.454
  P      191.841      81.081    -163.085
  C      194.204      80.263    -163.651
  O      193.335      80.713    -162.630
  O      191.095      80.000    -163.790
  O      191.146      81.484    -161.697
  H      190.173      81.336    -161.740
  H      195.218      80.201    -163.245
  H      194.201      80.961    -164.491
  H      193.898      79.271    -163.990
  H      192.109      83.853    -171.798
  H      192.800      82.251    -171.692
  H      193.619      83.607    -170.954

 3  4  5  6  7  8  9  10  11  12  13  23  28  29  30  31  32 0
 6-311+G(2d,p)
 ****
 33  34 0
 6-311+G(2d,p)
 ****
 1  2  14  15  16  17  18  19  20  21  22  24  25  26  27 0
 3-21G
 ****
 35  36  37  38  39  40  41  42  43  44  45 0
 3-21G
 ****


