%nproc=1
%NoSave
%Mem=1900MB
#P OB98/GEN NMR

erre ene a

0 1
  C      322.608    -304.718     113.260
  O      321.760    -304.607     112.110
  P      321.158    -305.954     111.478
  C      318.601    -305.525     111.302
  O      319.848    -305.570     110.625
  C      317.571    -304.743     110.468
  O      317.788    -303.315     110.559
  C      317.629    -305.065     108.978
  O      316.898    -306.248     108.673
  C      316.927    -303.857     108.385
  O      315.496    -304.008     108.510
  C      317.433    -302.723     109.278
  N      318.890    -299.104     106.047
  C      317.618    -299.564     106.364
  N      316.583    -298.960     105.731
  N      317.374    -300.522     107.231
  C      318.517    -301.019     107.805
  C      319.837    -300.655     107.559
  C      320.074    -299.612     106.590
  O      321.171    -299.171     106.262
  N      320.685    -301.389     108.328
  C      319.910    -302.194     109.020
  N      318.574    -302.020     108.731
  O      320.540    -306.696     112.764
  O      322.156    -306.815     110.777
  H      315.103    -303.236     108.063
  H      320.544    -307.663     112.621
  H      319.013    -298.372     105.370
  H      320.258    -302.909     109.758
  H      316.650    -301.961     109.465
  H      317.144    -303.725     107.309
  H      316.695    -298.178     105.094
  H      318.670    -305.125     108.613
  H      315.646    -299.249     105.981
  H      316.557    -304.979     110.844
  H      318.703    -305.046     112.286
  H      318.260    -306.549     111.491
  P      317.722    -307.573     108.263
  C      315.876    -309.097     109.284
  O      316.657    -308.748     108.141
  O      318.519    -307.913     109.625
  O      318.652    -307.400     107.103
  H      319.389    -308.322     109.394
  H      315.095    -309.793     108.967
  H      315.390    -308.205     109.706
  H      316.502    -309.565     110.042
  H      322.928    -303.743     113.563
  H      323.462    -305.314     113.017
  H      322.067    -305.180     114.059

 3  4  5  6  7  8  9  10  11  12  23  26  30  31 0
 6-311+G(2d,p)
 ****
 33  35  36  37  38 0
 6-311+G(2d,p)
 ****
 1  2  13  14  15  16  17  18  19  20  21  22  24  25 0
 3-21G
 ****
 27  28  29  32  34  39  40  41  42  43  44  45  46  47  48  49 0
 3-21G
 ****


