%nproc=1
%NoSave
%Mem=1900MB
#P OB98/GEN NMR

erre ene a

0 1
  C       63.052     -39.896      85.301
  O       63.080     -40.167      83.905
  P       62.792     -41.646      83.355
  C       61.990     -41.093      80.971
  O       63.054     -41.607      81.769
  C       62.299     -41.271      79.484
  O       63.342     -40.333      79.108
  C       62.786     -42.673      79.127
  O       62.281     -43.023      77.835
  C       64.295     -42.531      79.021
  O       64.855     -43.526      78.146
  C       64.430     -41.087      78.528
  N       68.233     -37.908      77.158
  C       67.098     -38.277      76.524
  N       66.146     -39.139      76.936
  C       66.429     -39.613      78.161
  C       67.548     -39.325      78.937
  C       68.485     -38.430      78.385
  N       69.635     -38.050      79.034
  N       67.508     -40.020      80.130
  C       66.379     -40.695      80.088
  N       65.686     -40.471      78.925
  O       61.469     -42.222      83.749
  O       64.010     -42.523      83.902
  H       64.480     -44.388      78.413
  H       63.697     -43.414      84.162
  H       66.931     -37.808      75.551
  H       66.021     -41.363      80.861
  H       64.345     -41.021      77.433
  H       64.748     -42.658      80.012
  H       62.486     -43.431      79.865
  H       61.399     -41.009      78.904
  H       61.877     -40.028      81.195
  H       70.188     -37.313      78.615
  H       69.738     -38.300      80.012
  H       61.053     -41.603      81.240
  P       61.338     -44.333      77.776
  C       59.147     -43.191      76.955
  O       60.253     -44.003      76.639
  O       60.819     -44.710      79.130
  O       62.331     -45.401      77.110
  H       63.032     -44.960      76.571
  H       58.502     -43.113      76.067
  H       59.480     -42.185      77.225
  H       58.569     -43.628      77.781
  H       63.267     -38.861      85.468
  H       63.786     -40.497      85.796
  H       62.082     -40.126      85.690

 3  4  5  6  7  8  9  10  11  12  22  25  29  30  31  32 0
 6-311+G(2d,p)
 ****
 33  36  37 0
 6-311+G(2d,p)
 ****
 1  2  13  14  15  16  17  18  19  20  21  23  24  26 0
 3-21G
 ****
 27  28  34  35  38  39  40  41  42  43  44  45  46  47  48 0
 3-21G
 ****


