%nproc=1
%NoSave
%Mem=1900MB
#P OB98/GEN NMR

erre ene a

0 1
  C      181.401     379.040    -382.536
  O      180.783     378.615    -381.315
  P      181.733     378.540    -380.014
  C      180.859     376.285    -379.077
  O      180.976     377.689    -378.882
  C      180.078     375.612    -377.937
  O      180.877     375.545    -376.729
  C      178.772     376.332    -377.584
  O      177.828     375.333    -377.185
  C      179.160     377.156    -376.367
  O      178.013     377.522    -375.610
  C      180.140     376.187    -375.670
  N      181.016     376.859    -374.716
  C      180.958     376.436    -373.387
  O      180.139     375.578    -373.038
  N      181.799     377.012    -372.464
  C      182.589     377.976    -372.829
  N      183.396     378.511    -371.878
  C      182.641     378.494    -374.216
  C      181.854     377.898    -375.089
  O      181.704     380.036    -379.448
  O      183.128     378.099    -380.321
  H      178.293     378.166    -374.915
  H      182.611     380.351    -379.280
  H      183.310     379.311    -374.474
  H      181.816     378.210    -376.125
  H      179.587     375.409    -375.124
  H      179.681     378.074    -376.674
  H      178.367     376.924    -378.405
  H      179.856     374.584    -378.242
  H      183.337     378.123    -370.942
  H      181.854     375.841    -379.142
  H      184.045     379.260    -372.050
  H      180.381     376.100    -380.045
  P      176.674     374.928    -378.212
  C      174.919     374.699    -376.344
  O      175.656     374.024    -377.358
  O      177.412     373.796    -379.091
  O      176.077     375.989    -379.074
  H      176.828     373.514    -379.819
  H      174.185     374.005    -375.926
  H      174.394     375.561    -376.767
  H      175.593     375.023    -375.541
  H      180.673     379.049    -383.320
  H      182.191     378.364    -382.790
  H      181.801     380.024    -382.410

 3  4  5  6  7  8  9  10  11  12  13  21  23  27  28  29  30  32 0
 6-311+G(2d,p)
 ****
 34  35 0
 6-311+G(2d,p)
 ****
 1  2  14  15  16  17  18  19  20  22  24  25  26 0
 3-21G
 ****
 31  33  36  37  38  39  40  41  42  43  44  45  46 0
 3-21G
 ****


