%nproc=1
%NoSave
%Mem=1900MB
#P OB98/GEN NMR

erre ene a

0 1
  C     -159.802      13.640       8.352
  O     -159.037      13.156       9.465
  P     -158.222      14.119      10.458
  C     -156.184      15.712      10.323
  O     -157.036      14.811       9.625
  C     -154.745      15.613       9.811
  O     -154.158      14.351      10.213
  C     -154.591      15.627       8.296
  O     -154.802      16.916       7.746
  C     -153.167      15.099       8.135
  O     -152.200      16.150       8.275
  C     -153.046      14.112       9.312
  N     -153.010      12.721       8.887
  C     -151.835      12.011       9.165
  O     -150.867      12.582       9.668
  N     -151.790      10.677       8.849
  C     -152.777      10.126       8.216
  N     -152.680       8.794       7.946
  C     -153.974      10.873       7.783
  C     -154.024      12.152       8.150
  O     -157.761      13.444      11.712
  O     -159.218      15.329      10.789
  H     -158.992      15.710      11.657
  H     -151.319      15.729       8.245
  H     -154.758      10.385       7.219
  H     -154.876      12.772       7.886
  H     -152.148      14.333       9.901
  H     -153.006      14.643       7.151
  H     -155.297      14.911       7.854
  H     -154.164      16.427      10.261
  H     -151.850       8.309       8.265
  H     -156.200      15.451      11.387
  H     -153.402       8.269       7.479
  H     -156.570      16.733      10.212
  P     -156.182      17.151       6.957
  C     -157.217      16.170       4.787
  O     -156.330      15.978       5.873
  O     -155.887      18.456       6.071
  O     -157.372      17.348       7.836
  H     -156.684      19.022       6.052
  H     -156.867      15.574       3.939
  H     -157.270      17.221       4.485
  H     -158.214      15.825       5.073
  H     -160.252      12.814       7.842
  H     -159.158      14.167       7.679
  H     -160.566      14.300       8.705

 3  4  5  6  7  8  9  10  11  12  13  24  27  28  29  30  32 0
 6-311+G(2d,p)
 ****
 34  35 0
 6-311+G(2d,p)
 ****
 1  2  14  15  16  17  18  19  20  21  22  23  25  26 0
 3-21G
 ****
 31  33  36  37  38  39  40  41  42  43  44  45  46 0
 3-21G
 ****


