%nproc=1
%NoSave
%Mem=1900MB
#P OB98/GEN NMR

erre ene a

0 1
  C     -116.049     -21.998     107.148
  O     -116.606     -22.287     105.863
  P     -116.687     -23.828     105.422
  C     -115.276     -25.320     103.804
  O     -115.408     -24.086     104.486
  C     -113.811     -25.590     103.441
  O     -113.390     -24.680     102.380
  C     -112.830     -25.432     104.610
  O     -111.827     -26.445     104.451
  C     -112.233     -24.057     104.371
  O     -110.976     -23.903     105.016
  C     -112.183     -24.034     102.840
  N     -112.060     -22.683     102.298
  C     -110.774     -22.212     102.065
  O     -109.766     -22.848     102.366
  N     -110.684     -20.962     101.516
  C     -111.731     -20.125     101.258
  O     -111.595     -19.011     100.764
  C     -113.061     -20.633     101.630
  C     -113.160     -21.868     102.127
  O     -117.922     -23.803     104.409
  O     -116.833     -24.758     106.580
  H     -117.964     -22.995     103.868
  H     -111.126     -23.639     105.945
  H     -109.760     -20.613     101.309
  H     -113.910     -19.976     101.495
  H     -114.120     -22.263     102.432
  H     -111.337     -24.630     102.475
  H     -112.914     -23.286     104.746
  H     -113.312     -25.536     105.586
  H     -113.745     -26.609     103.037
  H     -115.868     -25.301     102.883
  H     -115.684     -26.123     104.427
  P     -111.891     -27.736     105.411
  C     -110.632     -28.460     107.590
  O     -110.723     -27.577     106.495
  O     -111.307     -28.853     104.417
  O     -113.250     -28.076     105.925
  H     -110.501     -28.569     103.957
  H     -109.656     -28.334     108.063
  H     -110.730     -29.500     107.270
  H     -111.410     -28.225     108.322
  H     -116.057     -20.940     107.310
  H     -115.042     -22.358     107.189
  H     -116.631     -22.479     107.906

 3  4  5  6  7  8  9  10  11  12  13  24  28  29  30  31  32 0
 6-311+G(2d,p)
 ****
 33  34 0
 6-311+G(2d,p)
 ****
 1  2  14  15  16  17  18  19  20  21  22  23  25  26  27 0
 3-21G
 ****
 35  36  37  38  39  40  41  42  43  44  45 0
 3-21G
 ****


