%nproc=1
%NoSave
%Mem=1900MB
#P OB98/GEN NMR

erre ene a

0 1
  C      444.736     -16.663    -504.752
  O      443.403     -16.181    -504.761
  P      442.322     -16.763    -505.794
  C      441.854     -16.306    -508.262
  O      442.859     -16.456    -507.274
  C      441.758     -14.854    -508.749
  O      441.180     -14.039    -507.685
  C      443.109     -14.218    -509.124
  O      442.843     -13.314    -510.203
  C      443.468     -13.430    -507.876
  O      444.414     -12.393    -508.126
  C      442.089     -12.943    -507.452
  N      443.818      -9.639    -503.948
  C      444.105      -9.791    -505.258
  N      443.624     -10.719    -506.119
  C      442.754     -11.529    -505.500
  C      442.379     -11.515    -504.170
  C      442.940     -10.495    -503.369
  N      442.635     -10.306    -502.043
  N      441.507     -12.555    -503.901
  C      441.351     -13.172    -505.049
  N      442.036     -12.552    -506.062
  O      440.915     -16.348    -505.540
  O      442.490     -18.352    -505.667
  H      443.996     -11.728    -508.708
  H      441.736     -18.732    -505.171
  H      444.810      -9.081    -505.669
  H      440.769     -14.075    -505.208
  H      441.748     -12.088    -508.058
  H      443.897     -14.099    -507.125
  H      443.875     -14.942    -509.401
  H      441.064     -14.817    -509.592
  H      440.897     -16.599    -507.815
  H      442.989      -9.479    -501.604
  H      441.799     -10.756    -501.665
  H      442.060     -16.969    -509.105
  P      443.394     -13.648    -511.677
  C      445.709     -13.885    -512.734
  O      444.972     -13.846    -511.528
  O      442.969     -12.705    -512.745
  O      442.863     -15.133    -511.941
  H      442.907     -15.323    -512.902
  H      445.630     -14.873    -513.185
  H      446.766     -13.670    -512.523
  H      445.340     -13.137    -513.452
  H      445.295     -16.152    -503.996
  H      445.185     -16.488    -505.707
  H      444.734     -17.713    -504.546

 3  4  5  6  7  8  9  10  11  12  22  25  29  30  31  32 0
 6-311+G(2d,p)
 ****
 33  36  37 0
 6-311+G(2d,p)
 ****
 1  2  13  14  15  16  17  18  19  20  21  23  24  26 0
 3-21G
 ****
 27  28  34  35  38  39  40  41  42  43  44  45  46  47  48 0
 3-21G
 ****


