%nproc=1
%NoSave
%Mem=1900MB
#P OB98/GEN NMR

erre ene a

0 1
  C        3.259     200.214    -504.656
  O        2.899     200.126    -503.288
  P        3.839     200.740    -502.150
  C        6.301     200.340    -501.328
  O        5.227     199.958    -502.159
  C        7.101     199.087    -500.934
  O        7.775     198.546    -502.093
  C        8.154     199.403    -499.879
  O        7.655     199.141    -498.579
  C        9.304     198.500    -500.277
  O        9.087     197.166    -499.786
  C        9.203     198.529    -501.819
  N        9.818     199.662    -502.545
  C       10.165     199.514    -503.880
  O        9.952     198.498    -504.536
  N       10.793     200.593    -504.457
  C       11.052     201.783    -503.836
  O       11.820     202.638    -504.274
  C       10.433     201.966    -502.526
  C        9.875     200.906    -501.934
  O        3.143     200.243    -500.794
  O        3.998     202.226    -502.186
  H        9.885     196.651    -499.988
  H        2.586     200.947    -500.415
  H       11.171     200.448    -505.388
  H       10.497     202.947    -502.056
  H        9.437     201.013    -500.943
  H        9.613     197.611    -502.260
  H       10.240     198.837    -499.842
  H        8.479     200.454    -499.970
  H        6.400     198.327    -500.561
  H        5.921     200.848    -500.436
  H        6.949     201.053    -501.854
  P        8.263     199.928    -497.322
  C       10.045     199.400    -495.558
  O        9.399     198.958    -496.732
  O        7.261     200.425    -496.325
  O        9.077     201.127    -497.997
  H        8.541     201.947    -497.990
  H       10.656     198.586    -495.161
  H        9.304     199.690    -494.797
  H       10.692     200.250    -495.789
  H        2.505     199.747    -505.254
  H        4.195     199.719    -504.811
  H        3.350     201.243    -504.936

 3  4  5  6  7  8  9  10  11  12  13  23  28  29  30  31  32 0
 6-311+G(2d,p)
 ****
 33  34 0
 6-311+G(2d,p)
 ****
 1  2  14  15  16  17  18  19  20  21  22  24  25  26  27 0
 3-21G
 ****
 35  36  37  38  39  40  41  42  43  44  45 0
 3-21G
 ****


