%nproc=1
%NoSave
%Mem=1900MB
#P OB98/GEN NMR

erre ene a

0 1
  C      205.983    -105.931    -287.180
  O      204.636    -106.306    -287.404
  H      206.119    -105.667    -286.127
  H      206.626    -106.787    -287.412
  H      206.266    -105.092    -287.819
  P      203.547    -105.133    -287.417
  C      203.597    -104.713    -289.981
  O      203.890    -104.205    -288.685
  C      203.086    -103.603    -290.894
  O      204.188    -102.692    -291.172
  C      202.526    -104.086    -292.240
  O      201.378    -103.294    -292.574
  C      203.647    -103.776    -293.218
  O      203.177    -103.599    -294.550
  C      204.228    -102.513    -292.603
  N      207.267     -99.137    -294.899
  C      206.056     -99.017    -294.324
  N      205.335     -99.955    -293.676
  C      206.021    -101.112    -293.607
  C      207.275    -101.391    -294.139
  C      207.901    -100.335    -294.827
  N      209.106    -100.477    -295.477
  N      207.617    -102.709    -293.900
  C      206.580    -103.224    -293.257
  N      205.588    -102.292    -293.058
  O      203.988    -104.233    -286.164
  O      202.117    -105.569    -287.310
  H      202.662    -104.385    -294.808
  H      203.566    -104.574    -285.353
  H      205.594     -98.030    -294.397
  H      206.479    -104.254    -292.947
  H      203.654    -101.605    -292.854
  H      204.376    -104.591    -293.211
  H      202.252    -105.151    -292.250
  H      202.325    -103.023    -290.348
  H      202.819    -105.488    -289.895
  H      209.430     -99.696    -296.039
  H      209.533    -101.388    -295.529
  H      204.499    -105.166    -290.404
  P      200.011    -103.584    -291.781
  C      199.795    -101.266    -290.614
  O      199.994    -102.667    -290.464
  O      200.236    -105.061    -291.204
  O      198.792    -103.506    -292.638
  H      199.388    -105.534    -291.161
  H      199.810    -100.799    -289.652
  H      198.850    -101.088    -291.083
  H      200.576    -100.858    -291.221

 6  7  8  9  10  11  12  13  14  15  25  28  32  33  34  35 0
 6-311+G(2d,p)
 ****
 36  39  40 0
 6-311+G(2d,p)
 ****
 1  2  3  4  5  16  17  18  19  20  21  22  23  24 0
 3-21G
 ****
 26  27  29  30  31  37  38  41  42  43  44  45  46  47 0
 3-21G
 ****
 48 0
 3-21G
 ****


