%nproc=1
%NoSave
%Mem=1900MB
#P OB98/GEN NMR

erre ene a

0 1
  C     -157.236    -292.544    -116.213
  O     -157.177    -291.202    -116.657
  H     -157.618    -292.586    -115.190
  H     -157.913    -293.098    -116.867
  H     -156.244    -292.999    -116.262
  P     -156.312    -290.192    -115.759
  C     -158.531    -289.603    -114.550
  O     -157.158    -289.942    -114.417
  C     -159.236    -289.718    -113.204
  O     -159.401    -291.104    -112.842
  C     -158.489    -289.081    -112.039
  O     -158.648    -287.668    -112.009
  C     -159.188    -289.748    -110.860
  O     -160.435    -289.080    -110.595
  C     -159.452    -291.164    -111.393
  N     -158.201    -294.409    -107.612
  C     -159.243    -293.556    -107.760
  N     -159.503    -292.717    -108.785
  C     -158.564    -292.823    -109.739
  C     -157.452    -293.647    -109.728
  C     -157.279    -294.464    -108.596
  N     -156.205    -295.318    -108.449
  N     -156.718    -293.493    -110.885
  C     -157.378    -292.593    -111.587
  N     -158.495    -292.154    -110.932
  O     -156.436    -288.797    -116.538
  O     -154.884    -290.579    -115.554
  H     -161.046    -289.756    -110.246
  H     -155.594    -288.313    -116.456
  H     -159.963    -293.548    -106.948
  H     -157.084    -292.235    -112.568
  H     -160.456    -291.511    -111.125
  H     -158.600    -289.718    -109.941
  H     -157.431    -289.365    -112.042
  H     -160.237    -289.275    -113.309
  H     -159.004    -290.289    -115.264
  H     -156.241    -296.013    -107.724
  H     -155.522    -295.357    -109.198
  H     -158.606    -288.583    -114.937
  P     -157.399    -286.793    -111.499
  C     -158.428    -286.752    -109.116
  O     -157.298    -287.074    -109.922
  O     -157.957    -285.294    -111.572
  O     -156.145    -286.962    -112.288
  H     -157.213    -284.669    -111.674
  H     -158.217    -286.991    -108.095
  H     -159.275    -287.316    -109.447
  H     -158.641    -285.707    -109.201

 6  7  8  9  10  11  12  13  14  15  25  28  32  33  34  35 0
 6-311+G(2d,p)
 ****
 36  39  40 0
 6-311+G(2d,p)
 ****
 1  2  3  4  5  16  17  18  19  20  21  22  23  24 0
 3-21G
 ****
 26  27  29  30  31  37  38  41  42  43  44  45  46  47  48 0
 3-21G
 ****


