%nproc=1
%NoSave
%Mem=1900MB
#P OB98/GEN NMR

erre ene a

0 1
  C      238.068    -193.095     -33.279
  O      238.089    -194.407     -33.807
  H      237.776    -192.404     -34.073
  H      239.058    -192.810     -32.913
  H      237.337    -193.025     -32.470
  P      238.601    -195.598     -32.867
  C      236.304    -196.462     -32.051
  O      237.442    -196.709     -32.862
  C      235.488    -197.748     -31.851
  O      234.429    -197.487     -30.889
  C      234.818    -198.262     -33.139
  O      234.722    -199.689     -33.030
  C      233.449    -197.622     -33.040
  O      232.540    -198.208     -33.939
  C      233.174    -197.790     -31.541
  N      232.093    -196.937     -31.072
  C      230.795    -197.382     -31.331
  O      230.612    -198.437     -31.942
  N      229.737    -196.611     -30.927
  C      229.959    -195.459     -30.370
  N      228.867    -194.733     -30.005
  C      231.313    -194.922     -30.129
  C      232.326    -195.709     -30.496
  O      239.090    -195.197     -31.516
  O      239.762    -196.293     -33.725
  H      231.705    -197.687     -33.982
  H      240.632    -196.047     -33.361
  H      231.446    -193.950     -29.680
  H      233.358    -195.401     -30.359
  H      232.923    -198.833     -31.303
  H      233.499    -196.559     -33.293
  H      235.367    -197.988     -34.043
  H      236.139    -198.512     -31.410
  H      227.955    -195.132     -30.202
  H      235.695    -195.709     -32.557
  H      228.914    -193.817     -29.584
  H      236.613    -196.068     -31.074
  P      235.443    -200.691     -34.055
  C      237.317    -201.435     -32.445
  O      236.200    -201.839     -33.233
  O      236.298    -200.007     -35.072
  O      234.244    -201.480     -34.775
  H      234.517    -201.711     -35.682
  H      237.731    -202.288     -31.950
  H      236.999    -200.719     -31.716
  H      238.059    -200.995     -33.078

 6  7  8  9  10  11  12  13  14  15  16  26  30  31  32  33  35 0
 6-311+G(2d,p)
 ****
 37  38 0
 6-311+G(2d,p)
 ****
 1  2  3  4  5  17  18  19  20  21  22  23  24  25 0
 3-21G
 ****
 27  28  29  34  36  39  40  41  42  43  44  45  46 0
 3-21G
 ****


