%nproc=1
%NoSave
%Mem=1900MB
#P OB98/GEN NMR

erre ene a

0 1
  C      632.425     214.597    -128.796
  O      633.097     215.709    -128.181
  P      634.656     215.699    -127.808
  C      635.338     216.355    -130.214
  O      635.497     215.425    -129.162
  C      636.702     216.852    -130.719
  O      637.478     217.394    -129.621
  C      637.603     215.775    -131.303
  O      637.174     215.349    -132.598
  C      638.957     216.482    -131.292
  O      639.123     217.306    -132.450
  C      638.859     217.365    -130.027
  N      639.715     216.911    -128.948
  C      640.798     217.742    -128.614
  O      641.031     218.746    -129.267
  N      641.581     217.392    -127.544
  C      641.384     216.252    -126.941
  N      642.191     215.959    -125.884
  C      640.353     215.295    -127.360
  C      639.553     215.677    -128.351
  O      635.006     214.778    -126.685
  O      635.013     217.225    -127.433
  H      635.777     217.236    -126.833
  H      639.143     216.712    -133.230
  H      640.245     214.333    -126.847
  H      638.754     215.037    -128.706
  H      639.105     218.399    -130.281
  H      639.796     215.776    -131.271
  H      637.637     214.910    -130.620
  H      636.532     217.647    -131.451
  H      642.889     216.652    -125.614
  H      634.765     217.225    -129.852
  H      642.103     215.125    -125.332
  H      634.773     215.896    -131.042
  P      636.892     213.784    -132.786
  C      634.359     214.010    -133.315
  O      635.351     213.519    -132.431
  O      637.696     213.103    -131.567
  O      637.346     213.236    -134.111
  H      638.100     212.274    -131.882
  H      633.474     213.362    -133.237
  H      634.703     213.993    -134.357
  H      634.097     215.022    -133.025
  H      631.394     214.842    -128.946
  H      632.499     213.739    -128.160
  H      632.881     214.382    -129.740

 3  4  5  6  7  8  9  10  11  12  13  24  27  28  29  30  32 0
 6-311+G(2d,p)
 ****
 34  35 0
 6-311+G(2d,p)
 ****
 1  2  14  15  16  17  18  19  20  21  22  23  25  26 0
 3-21G
 ****
 31  33  36  37  38  39  40  41  42  43  44  45  46 0
 3-21G
 ****


