%nproc=1
%NoSave
%Mem=1900MB
#P OB98/GEN NMR

erre ene a

0 1
  C     -267.247    -424.748     147.603
  O     -265.893    -424.550     148.011
  P     -265.029    -425.837     148.386
  C     -263.434    -424.733     150.118
  O     -263.552    -425.351     148.830
  C     -261.983    -424.343     150.414
  O     -261.156    -425.553     150.378
  C     -261.351    -423.390     149.386
  O     -261.486    -421.988     149.610
  C     -259.866    -423.715     149.548
  O     -259.323    -422.976     150.678
  C     -259.854    -425.209     149.861
  N     -256.114    -426.884     146.768
  C     -256.103    -426.072     147.861
  N     -257.139    -425.677     148.629
  C     -258.293    -426.211     148.178
  C     -258.470    -427.054     147.095
  C     -257.311    -427.388     146.361
  N     -257.330    -428.211     145.247
  N     -259.790    -427.399     146.943
  C     -260.416    -426.745     147.912
  N     -259.544    -426.027     148.698
  O     -265.051    -426.967     147.422
  O     -265.660    -426.281     149.804
  H     -259.441    -422.033     150.456
  H     -265.668    -427.255     149.845
  H     -255.127    -425.691     148.152
  H     -261.476    -426.775     148.079
  H     -259.117    -425.470     150.637
  H     -259.273    -423.425     148.668
  H     -261.669    -423.639     148.368
  H     -261.912    -423.918     151.411
  H     -263.796    -425.439     150.888
  H     -256.462    -428.359     144.766
  H     -258.214    -428.553     144.908
  H     -264.114    -423.879     150.137
  P     -262.426    -421.087     148.666
  C     -261.318    -418.740     148.227
  O     -262.085    -419.560     149.072
  O     -263.873    -421.430     148.691
  O     -261.720    -421.232     147.232
  H     -260.847    -420.806     147.171
  H     -261.385    -417.709     148.577
  H     -261.692    -418.798     147.201
  H     -260.274    -419.051     148.263
  H     -267.696    -423.801     147.386
  H     -267.790    -425.228     148.390
  H     -267.269    -425.363     146.728

 3  4  5  6  7  8  9  10  11  12  22  25  29  30  31  32 0
 6-311+G(2d,p)
 ****
 33  36  37 0
 6-311+G(2d,p)
 ****
 1  2  13  14  15  16  17  18  19  20  21  23  24  26 0
 3-21G
 ****
 27  28  34  35  38  39  40  41  42  43  44  45  46  47  48 0
 3-21G
 ****


