%nproc=1
%NoSave
%Mem=1900MB
#P OB98/GEN NMR

erre ene a

0 1
  C     1075.611    -376.610     355.217
  O     1075.157    -375.594     356.099
  H     1076.520    -377.071     355.656
  H     1075.886    -376.177     354.256
  H     1074.852    -377.373     355.107
  P     1073.857    -374.771     355.624
  C     1072.105    -375.879     357.196
  O     1072.873    -374.708     356.899
  C     1071.549    -375.799     358.619
  O     1072.578    -376.197     359.587
  C     1071.064    -374.422     359.048
  O     1069.749    -374.179     358.576
  C     1071.142    -374.520     360.573
  O     1070.006    -375.209     361.098
  C     1072.430    -375.337     360.766
  N     1077.094    -375.224     362.731
  C     1076.146    -376.218     362.720
  N     1076.484    -377.370     363.359
  N     1074.979    -376.135     362.140
  C     1074.791    -374.953     361.527
  C     1075.645    -373.848     361.482
  C     1076.933    -373.975     362.113
  O     1077.828    -373.152     362.083
  N     1075.077    -372.805     360.781
  C     1073.851    -373.242     360.452
  N     1073.622    -374.520     360.938
  O     1073.110    -375.806     354.637
  O     1074.132    -373.472     354.959
  H     1069.218    -374.745     360.822
  H     1072.636    -375.294     353.953
  H     1077.958    -375.363     363.188
  H     1073.118    -372.672     359.905
  H     1072.354    -375.999     361.646
  H     1071.202    -373.526     361.020
  H     1077.179    -377.363     364.104
  H     1071.748    -373.635     358.682
  H     1075.774    -378.114     363.386
  H     1070.732    -376.531     358.715
  H     1072.751    -376.767     357.110
  H     1071.287    -375.970     356.480
  P     1069.291    -372.649     358.409
  C     1069.648    -372.663     355.828
  O     1068.729    -372.486     356.928
  O     1070.670    -371.842     358.383
  O     1068.378    -372.156     359.486
  H     1070.512    -370.881     358.550
  H     1069.128    -372.524     354.903
  H     1070.058    -373.651     355.861
  H     1070.438    -371.946     355.905

 6  7  8  9  10  11  12  13  14  15  26  29  33  34 0
 6-311+G(2d,p)
 ****
 36  38  39  40  41 0
 6-311+G(2d,p)
 ****
 1  2  3  4  5  16  17  18  19  20  21  22  23  24  25 0
 3-21G
 ****
 27  28  30  31  32  35  37  42  43  44  45  46  47 0
 3-21G
 ****
 48  49 0
 3-21G
 ****


