%nproc=1
%NoSave
%Mem=1900MB
#P OB98/GEN NMR

erre ene a

0 1
  C      297.327       8.836     522.642
  O      298.341       9.764     522.976
  H      297.663       8.241     521.789
  H      296.410       9.364     522.362
  H      297.130       8.170     523.485
  P      298.049      10.728     524.224
  C      300.251      10.364     525.556
  O      298.855      10.116     525.468
  C      300.994       9.051     525.796
  O      300.913       8.223     524.609
  C      302.484       9.225     526.066
  O      302.742       9.630     527.398
  C      303.004       7.834     525.742
  O      302.844       6.942     526.853
  C      302.103       7.400     524.580
  N      304.054       4.823     520.628
  C      303.375       4.416     521.726
  N      302.878       5.170     522.729
  C      303.115       6.473     522.503
  C      303.787       7.035     521.430
  C      304.273       6.145     520.457
  N      304.983       6.555     519.354
  N      303.866       8.407     521.573
  C      303.244       8.670     522.702
  N      302.771       7.532     523.300
  O      296.519      10.416     524.571
  O      298.276      12.179     523.969
  H      303.063       6.049     526.523
  H      295.950      11.115     524.196
  H      303.220       3.343     521.814
  H      303.117       9.658     523.130
  H      301.780       6.357     524.671
  H      304.064       7.865     525.491
  H      302.915       9.940     525.353
  H      300.504       8.516     526.621
  H      300.449      11.046     526.391
  H      300.589      10.834     524.625
  H      305.359       5.857     518.731
  H      305.249       7.528     519.274
  P      303.268      11.129     527.632
  C      302.644      11.560     530.128
  O      302.335      11.788     528.759
  O      302.845      11.896     526.290
  O      304.732      11.239     527.898
  H      303.525      12.558     526.061
  H      301.930      12.066     530.744
  H      303.625      11.933     530.339
  H      302.610      10.510     530.331

 6  7  8  9  10  11  12  13  14  15  25  28  32  33  34  35 0
 6-311+G(2d,p)
 ****
 36  37  40 0
 6-311+G(2d,p)
 ****
 1  2  3  4  5  16  17  18  19  20  21  22  23  24 0
 3-21G
 ****
 26  27  29  30  31  38  39 41  42  43  44  45  46  47  48 0
 3-21G
 ****


