%nproc=1
%NoSave
%Mem=1900MB
#P OB98/GEN NMR

erre ene a

0 1
  C     -884.669     -93.881    -843.531
  O     -883.762     -94.189    -842.474
  P     -884.170     -95.213    -841.315
  C     -884.083     -93.294    -839.592
  O     -884.884     -94.307    -840.193
  C     -884.817     -92.675    -838.413
  O     -885.922     -91.885    -838.930
  C     -885.458     -93.643    -837.423
  O     -884.570     -94.143    -836.430
  C     -886.506     -92.754    -836.767
  O     -885.865     -91.917    -835.795
  C     -886.995     -91.916    -837.947
  N     -892.038     -92.647    -837.411
  C     -891.122     -92.029    -836.625
  N     -889.793     -91.898    -836.835
  C     -889.444     -92.443    -838.008
  C     -890.258     -93.105    -838.910
  C     -891.618     -93.207    -838.574
  N     -892.547     -93.825    -839.384
  N     -889.529     -93.557    -839.997
  C     -888.295     -93.154    -839.743
  N     -888.198     -92.473    -838.566
  O     -883.055     -96.083    -840.823
  O     -885.390     -96.057    -841.936
  H     -886.574     -91.431    -835.324
  H     -885.532     -96.869    -841.406
  H     -891.507     -91.581    -835.708
  H     -887.447     -93.339    -840.399
  H     -887.218     -90.878    -837.666
  H     -887.280     -93.329    -836.248
  H     -885.966     -94.472    -837.955
  H     -884.134     -91.987    -837.899
  H     -883.887     -92.522    -840.348
  H     -893.526     -93.728    -839.125
  H     -892.266     -94.078    -840.320
  H     -883.129     -93.721    -839.282
  P     -885.006     -95.493    -835.661
  C     -884.966     -94.128    -833.417
  O     -885.664     -94.994    -834.287
  O     -883.930     -96.500    -835.525
  O     -886.260     -95.991    -836.517
  H     -887.048     -95.426    -836.475
  H     -885.638     -93.791    -832.636
  H     -884.585     -93.257    -833.955
  H     -884.125     -94.664    -832.957
  H     -884.213     -93.182    -844.200
  H     -885.561     -93.454    -843.123
  H     -884.914     -94.776    -844.063

 3  4  5  6  7  8  9  10  11  12  22  25  29  30  31  32 0
 6-311+G(2d,p)
 ****
 33  36  37 0
 6-311+G(2d,p)
 ****
 1  2  13  14  15  16  17  18  19  20  21  23  24  26 0
 3-21G
 ****
 27  28  34  35  38  39  40  41  42  43  44  45  46  47  48 0
 3-21G
 ****


