%nproc=1
%NoSave
%Mem=1900MB
#P OB98/GEN NMR

erre ene a

0 1
  C     -196.525     429.278     298.646
  O     -196.348     430.112     299.792
  P     -195.840     431.613     299.562
  C     -193.606     431.768     300.985
  O     -194.974     432.090     300.824
  C     -193.368     431.299     302.434
  O     -193.811     429.933     302.600
  C     -191.899     431.363     302.853
  O     -191.534     432.638     303.339
  C     -191.822     430.263     303.899
  O     -192.372     430.728     305.142
  C     -192.752     429.188     303.272
  N     -192.156     428.238     302.303
  C     -191.763     426.971     302.734
  O     -191.862     426.565     303.881
  N     -191.228     426.145     301.766
  C     -191.217     426.395     300.431
  O     -190.780     425.584     299.604
  C     -191.781     427.675     300.006
  C     -192.206     428.529     300.953
  O     -197.174     432.487     299.667
  O     -195.126     431.840     298.268
  H     -192.255     430.011     305.799
  H     -197.365     432.916     298.812
  H     -190.870     425.257     302.074
  H     -191.831     427.889     298.946
  H     -192.618     429.487     300.652
  H     -193.219     428.584     304.056
  H     -190.797     429.982     304.108
  H     -191.261     431.061     302.009
  H     -193.971     431.933     303.106
  H     -192.973     432.628     300.753
  H     -193.333     430.968     300.282
  P     -190.125     433.265     302.934
  C     -189.293     433.829     305.306
  O     -189.784     434.352     304.084
  O     -189.994     433.765     301.528
  O     -189.069     432.096     303.255
  H     -188.867     431.574     302.443
  H     -188.963     434.666     305.926
  H     -188.439     433.165     305.121
  H     -190.086     433.287     305.822
  H     -196.865     428.312     298.957
  H     -195.593     429.179     298.130
  H     -197.249     429.718     297.993

 3  4  5  6  7  8  9  10  11  12  13  23  28  29  30  31  32 0
 6-311+G(2d,p)
 ****
 33  34 0
 6-311+G(2d,p)
 ****
 1  2  14  15  16  17  18  19  20  21  22  24  25  26  27 0
 3-21G
 ****
 35  36  37  38  39  40  41  42  43  44  45 0
 3-21G
 ****


