%nproc=1
%NoSave
%Mem=1900MB
#P OB98/GEN NMR

erre ene a

0 1
  C      620.021    -187.821     -40.620
  O      620.808    -186.808     -40.042
  P      620.983    -186.719     -38.451
  C      619.510    -185.946     -36.479
  O      619.666    -185.985     -37.901
  C      619.640    -184.503     -35.976
  O      618.798    -183.609     -36.745
  C      619.174    -184.315     -34.534
  O      619.930    -184.944     -33.521
  C      619.044    -182.802     -34.477
  O      620.323    -182.187     -34.251
  C      618.526    -182.471     -35.897
  N      617.095    -182.133     -35.882
  C      616.764    -180.928     -35.275
  O      617.577    -180.157     -34.792
  N      615.422    -180.634     -35.241
  C      614.413    -181.434     -35.691
  O      613.224    -181.126     -35.584
  C      614.823    -182.712     -36.286
  C      616.131    -183.014     -36.358
  O      622.258    -186.124     -37.981
  O      620.749    -188.231     -37.963
  H      620.172    -181.235     -34.106
  H      619.878    -188.607     -38.194
  H      615.152    -179.761     -34.805
  H      614.049    -183.372     -36.662
  H      616.465    -183.941     -36.801
  H      619.063    -181.619     -36.312
  H      618.393    -182.483     -33.643
  H      618.165    -184.730     -34.449
  H      620.691    -184.182     -36.115
  H      620.308    -186.565     -36.017
  H      618.550    -186.386     -36.206
  P      619.563    -184.825     -31.961
  C      618.491    -182.999     -30.458
  O      619.198    -183.298     -31.654
  O      620.494    -185.511     -31.001
  O      618.136    -185.533     -31.903
  H      618.024    -185.953     -31.032
  H      618.274    -181.918     -30.432
  H      619.093    -183.251     -29.586
  H      617.539    -183.542     -30.435
  H      620.027    -187.714     -41.685
  H      619.017    -187.742     -40.259
  H      620.421    -188.778     -40.356

 3  4  5  6  7  8  9  10  11  12  13  23  28  29  30  31  32 0
 6-311+G(2d,p)
 ****
 33  34 0
 6-311+G(2d,p)
 ****
 1  2  14  15  16  17  18  19  20  21  22  24  25  26  27 0
 3-21G
 ****
 35  36  37  38  39  40  41  42  43  44  45 0
 3-21G
 ****


