%nproc=1
%NoSave
%Mem=1900MB
#P OB98/GEN NMR

erre ene a

0 1
  C      -38.904      -4.953     -29.856
  O      -38.817      -4.538     -31.209
  P      -37.417      -4.104     -31.845
  C      -36.398      -4.158     -34.264
  O      -37.538      -4.187     -33.433
  C      -36.716      -3.332     -35.516
  O      -37.616      -4.060     -36.377
  C      -37.378      -2.003     -35.158
  O      -36.410      -0.970     -35.074
  C      -38.369      -1.812     -36.290
  O      -37.711      -1.271     -37.450
  C      -38.820      -3.268     -36.559
  N      -39.876      -3.838     -35.702
  C      -41.135      -3.245     -35.673
  O      -41.446      -2.271     -36.351
  N      -42.036      -3.805     -34.802
  C      -41.812      -4.899     -34.017
  O      -42.526      -5.237     -33.081
  C      -40.574      -5.633     -34.294
  C      -39.668      -5.067     -35.091
  O      -36.459      -5.332     -31.482
  O      -36.867      -2.803     -31.361
  H      -36.948      -1.845     -37.641
  H      -35.919      -5.128     -30.696
  H      -42.904      -3.295     -34.673
  H      -40.417      -6.581     -33.798
  H      -38.725      -5.575     -35.281
  H      -39.145      -3.391     -37.598
  H      -39.143      -1.096     -36.019
  H      -37.934      -2.098     -34.217
  H      -35.786      -3.157     -36.071
  H      -36.110      -5.178     -34.542
  H      -35.552      -3.719     -33.726
  P      -36.732       0.347     -34.223
  C      -35.317       2.179     -33.123
  O      -35.302       0.943     -33.810
  O      -37.701       0.169     -33.101
  O      -37.282       1.371     -35.327
  H      -38.261       1.371     -35.321
  H      -34.313       2.383     -32.746
  H      -36.015       2.142     -32.282
  H      -35.606       2.979     -33.811
  H      -39.919      -5.200     -29.623
  H      -38.575      -4.160     -29.218
  H      -38.284      -5.812     -29.706

 3  4  5  6  7  8  9  10  11  12  13  23  28  29  30  31  32 0
 6-311+G(2d,p)
 ****
 33  34 0
 6-311+G(2d,p)
 ****
 1  2  14  15  16  17  18  19  20  21  22  24  25  26  27 0
 3-21G
 ****
 35  36  37  38  39  40  41  42  43  44  45 0
 3-21G
 ****


