%nproc=1
%NoSave
%Mem=1900MB
#P OB98/GEN NMR

erre ene a

0 1
  C        4.534     711.238     141.651
  O        4.905     710.583     140.449
  P        4.658     711.265     139.027
  C        4.690     708.871     137.946
  O        5.074     710.229     137.889
  C        4.492     708.350     136.518
  O        3.351     708.979     135.908
  C        5.715     708.635     135.647
  O        6.594     707.518     135.631
  C        5.091     708.935     134.297
  O        4.778     707.713     133.605
  C        3.794     709.671     134.708
  N        3.877     711.112     135.018
  C        4.344     711.996     134.047
  O        4.670     711.656     132.911
  N        4.446     713.312     134.442
  C        4.089     713.805     135.662
  O        4.410     714.911     136.077
  C        3.359     712.881     136.532
  C        3.307     711.594     136.186
  O        5.806     712.375     138.955
  O        3.301     711.854     138.827
  H        5.547     707.126     133.692
  H        5.458     713.253     139.197
  H        4.915     713.930     133.787
  H        2.936     713.266     137.449
  H        2.801     710.885     136.834
  H        3.016     709.548     133.947
  H        5.787     709.477     133.658
  H        6.230     709.534     136.004
  H        4.301     707.270     136.559
  H        3.759     708.773     138.521
  H        5.452     708.286     138.470
  P        8.170     707.756     135.537
  C        7.855     705.446     134.478
  O        8.776     706.361     135.040
  O        8.807     708.334     136.765
  O        8.326     708.730     134.277
  H        8.408     709.660     134.579
  H        8.406     704.619     134.019
  H        7.240     705.939     133.712
  H        7.207     705.040     135.260
  H        4.783     710.618     142.487
  H        3.480     711.424     141.645
  H        5.059     712.167     141.728

 3  4  5  6  7  8  9  10  11  12  13  23  28  29  30  31  32 0
 6-311+G(2d,p)
 ****
 33  34 0
 6-311+G(2d,p)
 ****
 1  2  14  15  16  17  18  19  20  21  22  24  25  26  27 0
 3-21G
 ****
 35  36  37  38  39  40  41  42  43  44  45 0
 3-21G
 ****


