%nproc=1
%NoSave
%Mem=1900MB
#P OB98/GEN NMR

erre ene a

0 1
  C     -120.192     226.238     569.879
  O     -120.068     227.278     568.919
  H     -119.600     225.385     569.541
  H     -121.238     225.925     569.974
  H     -119.810     226.567     570.846
  P     -120.898     228.627     569.142
  C     -119.191     230.330     568.216
  O     -120.412     229.656     567.991
  C     -118.518     230.669     566.873
  O     -118.178     229.409     566.232
  C     -119.455     231.459     565.930
  O     -118.865     232.660     565.436
  C     -119.891     230.411     564.910
  O     -120.257     230.936     563.643
  C     -118.698     229.434     564.880
  N     -119.054     228.089     564.434
  C     -118.648     227.702     563.156
  O     -118.004     228.411     562.371
  N     -119.008     226.427     562.768
  C     -119.731     225.548     563.525
  O     -120.017     224.413     563.124
  C     -120.150     226.016     564.847
  C     -119.796     227.251     565.245
  O     -120.865     229.185     570.525
  O     -122.387     228.254     568.689
  H     -121.059     231.472     563.757
  H     -122.943     228.104     569.477
  H     -118.713     226.138     561.846
  H     -120.720     225.344     565.475
  H     -120.081     227.621     566.225
  H     -117.906     229.813     564.216
  H     -120.775     229.880     565.305
  H     -120.340     231.823     566.466
  H     -117.585     231.212     567.067
  H     -118.551     229.691     568.807
  H     -119.365     231.266     568.773
  P     -119.525     234.109     565.524
  C     -118.095     235.030     567.514
  O     -118.450     235.121     566.136
  O     -120.915     234.154     566.098
  O     -119.626     234.559     563.967
  H     -120.436     235.114     563.896
  H     -117.368     235.780     567.745
  H     -117.685     234.062     567.713
  H     -118.966     235.179     568.117

 6  7  8  9  10  11  12  13  14  15  16  26  31  32  33  34  35 0
 6-311+G(2d,p)
 ****
 36  37 0
 6-311+G(2d,p)
 ****
 1  2  3  4  5  17  18  19  20  21  22  23  24  25 0
 3-21G
 ****
 27  28  29  30  38  39  40  41  42  43  44  45 0
 3-21G
 ****


