%nproc=1
%NoSave
%Mem=1900MB
#P OB98/GEN NMR

erre ene a

0 1
  C     -129.672       0.289     218.974
  O     -128.702      -0.612     219.467
  H     -130.525       0.293     219.657
  H     -130.017      -0.032     217.988
  H     -129.269       1.303     218.915
  P     -127.263      -0.658     218.763
  C     -125.878       0.505     220.601
  O     -126.443       0.611     219.300
  C     -124.819       1.588     220.796
  O     -124.335       1.571     222.156
  C     -123.586       1.415     219.915
  O     -123.857       1.808     218.584
  C     -122.589       2.297     220.654
  O     -122.791       3.680     220.329
  C     -122.961       2.014     222.131
  N     -122.082       1.036     222.769
  C     -120.872       1.522     223.261
  O     -120.521       2.695     223.144
  N     -120.069       0.602     223.881
  C     -120.312      -0.738     223.978
  O     -119.531      -1.531     224.496
  C     -121.586      -1.199     223.409
  C     -122.400      -0.306     222.840
  O     -127.269      -0.817     217.277
  O     -126.533      -1.889     219.482
  H     -122.306       4.200     221.001
  H     -126.572      -2.676     218.908
  H     -119.185       0.931     224.233
  H     -121.812      -2.254     223.461
  H     -123.344      -0.624     222.410
  H     -122.920       2.944     222.715
  H     -121.554       2.064     220.402
  H     -123.233       0.379     219.954
  H     -125.290       2.562     220.619
  H     -125.414      -0.482     220.704
  H     -126.675       0.605     221.343
  P     -122.777       1.574     217.428
  C     -123.469      -0.885     217.272
  O     -122.383       0.018     217.438
  O     -121.613       2.510     217.444
  O     -123.618       1.726     216.076
  H     -123.408       2.581     215.647
  H     -123.103      -1.890     217.293
  H     -123.947      -0.699     216.333
  H     -124.174      -0.745     218.065

 6  7  8  9  10  11  12  13  14  15  16  26  31  32  33  34  35 0
 6-311+G(2d,p)
 ****
 36  37 0
 6-311+G(2d,p)
 ****
 1  2  3  4  5  17  18  19  20  21  22  23  24  25 0
 3-21G
 ****
 27  28  29  30  38  39  40  41  42  43  44  45 0
 3-21G
 ****


