%nproc=1
%NoSave
%Mem=1900MB
#P OB98/GEN NMR

erre ene a

0 1
  C      420.695     -63.651    -223.484
  O      421.098     -63.513    -224.837
  P      421.754     -64.804    -225.540
  C      421.372     -63.338    -227.664
  O      422.119     -64.368    -227.035
  C      422.334     -62.341    -228.320
  O      423.391     -63.044    -229.004
  C      421.682     -61.436    -229.363
  O      421.021     -60.355    -228.737
  C      422.880     -61.031    -230.211
  O      423.608     -59.956    -229.586
  C      423.712     -62.323    -230.227
  N      424.115     -62.667    -235.255
  C      424.313     -61.580    -234.417
  N      424.717     -60.436    -235.009
  N      424.129     -61.622    -233.120
  C      423.714     -62.824    -232.679
  C      423.464     -63.967    -233.408
  C      423.723     -63.930    -234.830
  O      423.661     -64.884    -235.596
  N      423.029     -64.990    -232.605
  C      423.040     -64.477    -231.393
  N      423.467     -63.172    -231.381
  O      420.510     -65.792    -225.713
  O      422.885     -65.429    -224.786
  H      423.805     -60.192    -228.660
  H      420.495     -66.459    -224.993
  H      424.288     -62.587    -236.241
  H      422.772     -65.005    -230.493
  H      424.789     -62.115    -230.206
  H      422.584     -60.669    -231.201
  H      424.860     -60.323    -236.000
  H      420.976     -62.014    -229.982
  H      424.866     -59.629    -234.412
  H      422.793     -61.733    -227.530
  H      420.778     -62.817    -226.912
  H      420.706     -63.778    -228.405
  P      419.754     -59.720    -229.486
  C      418.603     -59.159    -227.230
  O      419.073     -58.681    -228.475
  O      418.714     -60.939    -229.550
  O      420.044     -59.190    -230.851
  H      418.219     -60.899    -230.391
  H      418.669     -58.352    -226.498
  H      419.187     -60.017    -226.874
  H      417.560     -59.459    -227.332
  H      420.278     -62.727    -223.140
  H      421.543     -63.905    -222.883
  H      419.959     -64.424    -223.408

 3  4  5  6  7  8  9  10  11  12  23  26  30  31 0
 6-311+G(2d,p)
 ****
 33  35  36  37  38 0
 6-311+G(2d,p)
 ****
 1  2  13  14  15  16  17  18  19  20  21  22  24  25 0
 3-21G
 ****
 27  28  29  32  34  39  40  41  42  43  44  45  46  47  48  49 0
 3-21G
 ****


