%nproc=1
%NoSave
%Mem=1900MB
#P OB98/GEN NMR

erre ene a

0 1
  C      778.490    -105.660     921.461
  O      777.593    -106.441     922.265
  P      776.287    -107.067     921.568
  C      777.026    -109.532     921.771
  O      776.680    -108.476     920.874
  C      777.107    -110.870     921.014
  O      775.789    -111.273     920.524
  C      778.031    -110.779     919.784
  O      778.691    -112.050     919.562
  C      777.041    -110.573     918.646
  O      777.612    -110.933     917.377
  C      775.882    -111.435     919.099
  N      773.513    -110.448     914.665
  C      774.754    -110.847     914.932
  N      775.324    -111.123     916.135
  C      774.431    -110.942     917.122
  C      773.103    -110.546     916.994
  C      772.648    -110.288     915.700
  N      771.361    -109.845     915.426
  N      772.492    -110.469     918.238
  C      773.449    -110.777     919.097
  N      774.627    -111.093     918.466
  O      775.509    -106.150     920.697
  O      775.421    -107.547     922.829
  H      776.987    -110.643     916.690
  H      774.484    -107.311     922.667
  H      775.412    -110.966     914.077
  H      773.331    -110.766     920.176
  H      776.074    -112.509     918.910
  H      776.769    -109.513     918.601
  H      778.789    -109.994     919.833
  H      777.445    -111.652     921.697
  H      776.269    -109.607     922.552
  H      771.163    -109.564     914.488
  H      770.766    -109.581     916.175
  H      777.970    -109.289     922.282
  P      780.119    -111.969     918.837
  C      781.163    -113.959     920.172
  O      781.178    -112.567     919.873
  O      780.441    -110.610     918.277
  O      779.980    -113.103     917.711
  H      779.655    -113.965     918.049
  H      782.041    -114.177     920.795
  H      781.234    -114.545     919.263
  H      780.264    -114.220     920.718
  H      779.304    -105.317     922.065
  H      777.966    -104.819     921.057
  H      778.869    -106.262     920.662

 3  4  5  6  7  8  9  10  11  12  22  25  29  30  31  32 0
 6-311+G(2d,p)
 ****
 33  36  37 0
 6-311+G(2d,p)
 ****
 1  2  13  14  15  16  17  18  19  20  21  23  24  26 0
 3-21G
 ****
 27  28  34  35  38  39  40  41  42  43  44  45  46  47  48 0
 3-21G
 ****


