%nproc=1
%NoSave
%Mem=1900MB
#P OB98/GEN NMR

erre ene a

0 1
  C      131.851     262.558     -48.041
  O      131.566     261.464     -47.191
  H      132.009     263.448     -47.427
  H      131.011     262.740     -48.717
  H      132.759     262.362     -48.619
  P      131.277     260.058     -47.911
  C      129.107     259.527     -46.592
  O      129.687     259.845     -47.849
  C      127.660     259.078     -46.771
  O      126.806     260.210     -47.052
  C      127.446     258.081     -47.902
  O      127.747     256.760     -47.486
  C      125.965     258.281     -48.198
  O      125.137     257.563     -47.262
  C      125.804     259.798     -48.018
  N      123.375     261.616     -52.053
  C      122.891     260.933     -50.954
  N      121.572     260.647     -50.959
  N      123.636     260.556     -49.950
  C      124.943     260.883     -50.098
  C      125.538     261.573     -51.128
  C      124.696     262.012     -52.221
  O      125.050     262.677     -53.190
  N      126.882     261.727     -50.910
  C      127.106     261.100     -49.772
  N      125.960     260.557     -49.249
  O      131.831     258.981     -46.861
  O      131.900     259.886     -49.254
  H      125.415     256.632     -47.237
  H      132.151     258.199     -47.347
  H      122.749     261.897     -52.786
  H      128.068     261.011     -49.289
  H      124.825     260.061     -47.605
  H      125.700     257.917     -49.192
  H      121.041     260.609     -51.820
  H      128.034     258.362     -48.785
  H      121.216     260.126     -50.169
  H      127.328     258.651     -45.815
  H      129.132     260.417     -45.955
  H      129.692     258.732     -46.117
  P      128.058     255.670     -48.624
  C      126.152     254.100     -47.804
  O      126.690     254.871     -48.873
  O      128.977     254.599     -47.869
  O      128.717     256.218     -49.844
  H      129.446     254.045     -48.520
  H      125.245     253.631     -48.124
  H      125.948     254.739     -46.971
  H      126.858     253.350     -47.514

 6  7  8  9  10  11  12  13  14  15  26  29  33  34 0
 6-311+G(2d,p)
 ****
 36  38  39  40  41 0
 6-311+G(2d,p)
 ****
 1  2  3  4  5  16  17  18  19  20  21  22  23  24  25 0
 3-21G
 ****
 27  28  30  31  32  35  37  42  43  44  45  46  47 0
 3-21G
 ****
 48  49 0
 3-21G
 ****


