%nproc=1
%NoSave
%Mem=1900MB
#P OB98/GEN NMR

erre ene a

0 1
  C      769.542     157.682    -113.933
  O      770.148     158.960    -113.839
  H      770.124     157.069    -114.623
  H      768.525     157.787    -114.326
  H      769.518     157.198    -112.954
  P      769.585     159.935    -112.701
  C      767.963     161.357    -114.194
  O      769.153     161.308    -113.420
  C      768.098     162.399    -115.303
  O      768.178     163.730    -114.748
  C      769.369     162.275    -116.119
  O      769.346     161.168    -117.005
  C      769.376     163.618    -116.842
  O      768.573     163.586    -118.026
  C      768.760     164.560    -115.779
  N      769.746     165.492    -115.253
  C      769.685     166.790    -115.780
  O      768.822     167.075    -116.615
  N      770.621     167.706    -115.379
  C      771.555     167.351    -114.544
  N      772.469     168.302    -114.210
  C      771.655     166.000    -113.964
  C      770.727     165.123    -114.361
  O      770.910     160.342    -111.902
  O      768.513     159.345    -111.849
  H      768.633     164.483    -118.425
  H      771.635     160.637    -112.474
  H      772.444     165.762    -113.270
  H      770.724     164.104    -113.988
  H      767.938     165.143    -116.217
  H      770.386     163.899    -117.152
  H      770.249     162.238    -115.459
  H      767.205     162.343    -115.940
  H      772.394     169.205    -114.667
  H      767.099     161.588    -113.560
  H      773.279     168.120    -113.633
  H      767.799     160.363    -114.623
  P      770.634     160.229    -117.189
  C      770.726     161.222    -119.560
  O      770.846     160.044    -118.771
  O      770.614     158.949    -116.424
  O      771.854     161.197    -116.799
  H      771.924     162.001    -117.348
  H      770.886     160.979    -120.590
  H      771.456     161.938    -119.245
  H      769.746     161.634    -119.439

 6  7  8  9  10  11  12  13  14  15  16  26  30  31  32  33  35 0
 6-311+G(2d,p)
 ****
 37  38 0
 6-311+G(2d,p)
 ****
 1  2  3  4  5  17  18  19  20  21  22  23  24  25 0
 3-21G
 ****
 27  28  29  34  36  39  40  41  42  43  44  45  46 0
 3-21G
 ****


