%nproc=1
%NoSave
%Mem=1900MB
#P OB98/GEN NMR

erre ene a

0 1
  C      372.769    -311.187      90.324
  O      372.436    -312.065      91.384
  H      372.830    -311.763      89.400
  H      373.731    -310.704      90.501
  H      371.988    -310.426      90.208
  P      372.537    -311.507      92.885
  C      374.459    -310.567      94.337
  O      374.009    -310.870      93.016
  C      375.962    -310.829      94.466
  O      376.683    -310.122      93.436
  C      376.559    -310.328      95.777
  O      376.145    -311.058      96.921
  C      378.043    -310.227      95.448
  O      378.748    -311.455      95.625
  C      378.010    -309.864      93.938
  N      378.402    -308.475      93.709
  C      379.784    -308.224      93.724
  O      380.627    -309.110      93.953
  N      380.160    -306.934      93.522
  C      379.319    -305.865      93.359
  O      379.720    -304.724      93.224
  C      377.875    -306.189      93.369
  C      377.498    -307.455      93.535
  O      372.208    -312.493      93.973
  O      371.584    -310.216      92.875
  H      379.621    -311.346      95.207
  H      371.345    -309.937      93.801
  H      381.149    -306.736      93.527
  H      377.178    -305.362      93.242
  H      376.440    -307.713      93.557
  H      378.695    -310.503      93.375
  H      378.541    -309.472      96.069
  H      376.213    -309.302      95.939
  H      376.140    -311.899      94.337
  H      373.920    -311.224      95.038
  H      374.235    -309.519      94.568
  P      376.115    -310.448      98.387
  C      377.826    -309.300      99.988
  O      377.630    -310.103      98.831
  O      375.215    -311.105      99.379
  O      375.526    -308.964      98.109
  H      374.964    -308.710      98.880
  H      378.874    -309.160     100.152
  H      377.394    -309.787     100.837
  H      377.357    -308.349      99.846

 6  7  8  9  10  11  12  13  14  15  16  26  31  32  33  34  35 0
 6-311+G(2d,p)
 ****
 36  37 0
 6-311+G(2d,p)
 ****
 1  2  3  4  5  17  18  19  20  21  22  23  24  25 0
 3-21G
 ****
 27  28  29  30  38  39  40  41  42  43  44  45 0
 3-21G
 ****


