%nproc=1
%NoSave
%Mem=1900MB
#P OB98/GEN NMR

erre ene a

0 1
  C     -170.776    -187.035     -58.795
  O     -170.199    -186.379     -57.682
  H     -171.141    -188.014     -58.474
  H     -170.018    -187.179     -59.568
  H     -171.616    -186.458     -59.195
  P     -169.878    -184.817     -57.842
  C     -167.884    -183.420     -58.732
  O     -168.489    -184.702     -58.645
  C     -166.769    -183.430     -59.779
  O     -165.679    -184.259     -59.292
  C     -167.202    -183.985     -61.145
  O     -166.568    -183.221     -62.175
  C     -166.654    -185.399     -61.143
  O     -166.431    -185.903     -62.458
  C     -165.382    -185.228     -60.319
  N     -163.486    -189.780     -61.365
  C     -163.709    -188.693     -62.189
  N     -163.383    -188.844     -63.491
  N     -164.206    -187.561     -61.772
  C     -164.452    -187.539     -60.439
  C     -164.281    -188.550     -59.521
  C     -163.754    -189.809     -59.999
  O     -163.559    -190.814     -59.323
  N     -164.677    -188.150     -58.266
  C     -165.085    -186.907     -58.431
  N     -164.962    -186.489     -59.728
  O     -169.489    -184.371     -56.354
  O     -170.992    -183.986     -58.388
  H     -167.309    -186.035     -62.875
  H     -170.145    -183.730     -56.021
  H     -163.112    -190.637     -61.739
  H     -165.485    -186.271     -57.650
  H     -164.544    -184.853     -60.915
  H     -167.361    -186.068     -60.640
  H     -162.952    -189.674     -63.870
  H     -168.284    -183.960     -61.288
  H     -163.503    -188.051     -64.110
  H     -166.371    -182.412     -59.876
  H     -167.464    -183.158     -57.755
  H     -168.643    -182.677     -59.005
  P     -167.526    -182.405     -63.173
  C     -169.287    -182.973     -64.986
  O     -168.237    -183.457     -64.162
  O     -166.494    -181.632     -64.124
  O     -168.449    -181.455     -62.482
  H     -166.493    -180.682     -63.908
  H     -169.666    -183.773     -65.588
  H     -168.914    -182.196     -65.620
  H     -170.073    -182.586     -64.372

 6  7  8  9  10  11  12  13  14  15  26  29  33  34 0
 6-311+G(2d,p)
 ****
 36  38  39  40  41 0
 6-311+G(2d,p)
 ****
 1  2  3  4  5  16  17  18  19  20  21  22  23  24  25 0
 3-21G
 ****
 27  28  30  31  32  35  37  42  43  44  45  46  47 0
 3-21G
 ****
 48  49 0
 3-21G
 ****


