%nproc=1
%NoSave
%Mem=1900MB
#P OB98/GEN NMR

erre ene a

0 1
  C     -144.222      36.220     213.541
  O     -144.879      35.418     214.528
  P     -143.934      34.806     215.677
  C     -143.554      32.467     214.619
  O     -142.972      33.707     214.991
  C     -142.851      31.289     215.296
  O     -143.710      30.110     215.332
  C     -141.541      30.872     214.609
  O     -140.646      30.429     215.637
  C     -141.970      29.665     213.782
  O     -140.857      28.865     213.399
  C     -142.950      29.013     214.761
  N     -143.515      24.136     213.594
  C     -142.433      24.799     214.143
  N     -141.364      24.039     214.481
  N     -142.406      26.086     214.348
  C     -143.566      26.712     213.999
  C     -144.706      26.159     213.467
  C     -144.710      24.729     213.211
  O     -145.641      24.088     212.731
  N     -145.685      27.115     213.277
  C     -145.093      28.241     213.636
  N     -143.840      28.043     214.136
  O     -144.946      33.932     216.557
  O     -143.234      35.843     216.497
  H     -141.206      28.109     212.880
  H     -145.194      34.423     217.368
  H     -143.477      23.134     213.445
  H     -145.546      29.222     213.589
  H     -142.439      28.486     215.571
  H     -142.488      29.993     212.873
  H     -141.340      23.032     214.398
  H     -141.075      31.652     213.997
  H     -140.579      24.496     214.916
  H     -142.640      31.568     216.341
  H     -143.493      32.333     213.532
  H     -144.626      32.486     214.860
  P     -139.292      31.262     215.848
  C     -137.903      30.111     213.977
  O     -138.529      31.297     214.439
  O     -138.386      30.263     216.731
  O     -139.460      32.576     216.534
  H     -137.891      30.781     217.398
  H     -137.858      30.133     212.885
  H     -138.459      29.214     214.289
  H     -136.885      30.054     214.381
  H     -144.941      36.572     212.831
  H     -143.483      35.632     213.038
  H     -143.751      37.055     214.016

 3  4  5  6  7  8  9  10  11  12  23  26  30  31 0
 6-311+G(2d,p)
 ****
 33  35  36  37  38 0
 6-311+G(2d,p)
 ****
 1  2  13  14  15  16  17  18  19  20  21  22  24  25 0
 3-21G
 ****
 27  28  29  32  34  39  40  41  42  43  44  45  46  47  48  49 0
 3-21G
 ****


