%nproc=1
%NoSave
%Mem=1900MB
#P OB98/GEN NMR

erre ene a

0 1
  C      -78.760    -219.501    -556.976
  O      -78.147    -218.224    -557.049
  P      -78.294    -217.323    -558.367
  C      -80.042    -215.688    -557.424
  O      -79.789    -216.735    -558.356
  C      -80.412    -214.400    -558.150
  O      -79.256    -213.917    -558.873
  C      -81.545    -214.574    -559.161
  O      -82.360    -213.396    -559.167
  C      -80.834    -214.671    -560.505
  O      -81.691    -214.253    -561.579
  C      -79.614    -213.777    -560.263
  N      -75.932    -212.114    -563.427
  C      -76.893    -211.451    -562.751
  N      -77.856    -211.962    -561.944
  C      -77.720    -213.294    -561.830
  C      -76.781    -214.098    -562.465
  C      -75.853    -213.457    -563.297
  N      -74.857    -214.128    -563.972
  N      -76.972    -215.426    -562.120
  C      -77.994    -215.418    -561.293
  N      -78.474    -214.151    -561.077
  O      -77.907    -217.992    -559.640
  O      -77.397    -216.031    -558.075
  H      -82.532    -214.747    -561.486
  H      -76.936    -215.748    -558.888
  H      -76.897    -210.375    -562.872
  H      -78.430    -216.296    -560.830
  H      -79.844    -212.717    -560.449
  H      -80.544    -215.709    -560.692
  H      -82.165    -215.458    -558.961
  H      -80.682    -213.639    -557.407
  H      -79.133    -215.518    -556.836
  H      -74.168    -213.575    -564.450
  H      -74.689    -215.099    -563.740
  H      -80.845    -215.994    -556.738
  P      -83.921    -213.626    -559.476
  C      -84.512    -213.684    -556.941
  O      -84.490    -214.366    -558.171
  O      -84.144    -214.286    -560.792
  O      -84.470    -212.122    -559.380
  H      -83.902    -211.562    -558.812
  H      -84.898    -214.361    -556.170
  H      -85.174    -212.813    -557.004
  H      -83.505    -213.362    -556.655
  H      -78.549    -219.944    -556.025
  H      -78.375    -220.126    -557.754
  H      -79.818    -219.396    -557.094

 3  4  5  6  7  8  9  10  11  12  22  25  29  30  31  32 0
 6-311+G(2d,p)
 ****
 33  36  37 0
 6-311+G(2d,p)
 ****
 1  2  13  14  15  16  17  18  19  20  21  23  24  26 0
 3-21G
 ****
 27  28  34  35  38  39  40  41  42  43  44  45  46  47  48 0
 3-21G
 ****


