%nproc=1
%NoSave
%Mem=1900MB
#P OB98/GEN NMR

erre ene a

0 1
  C       70.845    -548.347     335.548
  O       70.849    -549.750     335.840
  P       70.865    -550.740     334.575
  C       72.502    -552.443     335.662
  O       71.210    -552.214     335.108
  C       72.680    -553.894     336.111
  O       71.903    -554.115     337.324
  C       72.230    -554.952     335.098
  O       73.128    -556.059     335.163
  C       70.883    -555.418     335.640
  O       70.536    -556.715     335.168
  C       71.163    -555.326     337.134
  N       67.053    -557.916     338.608
  C       68.145    -558.325     337.868
  N       68.130    -559.622     337.444
  N       69.159    -557.569     337.573
  C       69.054    -556.303     338.087
  C       68.024    -555.774     338.832
  C       66.891    -556.626     339.120
  O       65.870    -556.304     339.711
  N       68.276    -554.470     339.176
  C       69.453    -554.211     338.621
  N       69.950    -555.291     337.940
  O       72.185    -550.293     333.782
  O       69.648    -550.635     333.710
  H       71.017    -557.347     335.736
  H       71.955    -550.047     332.864
  H       66.292    -558.546     338.792
  H       69.958    -553.249     338.662
  H       71.769    -556.169     337.480
  H       70.120    -554.707     335.324
  H       67.412    -560.280     337.691
  H       72.177    -554.588     334.066
  H       68.950    -559.957     336.944
  H       73.742    -554.040     336.369
  H       72.644    -551.777     336.515
  H       73.259    -552.184     334.905
  P       74.115    -556.262     333.904
  C       76.068    -556.725     335.581
  O       75.322    -557.173     334.450
  O       74.791    -554.817     333.732
  O       73.448    -556.733     332.669
  H       75.052    -554.676     332.811
  H       75.590    -555.892     336.093
  H       77.068    -556.423     335.247
  H       76.164    -557.562     336.280
  H       70.834    -547.792     336.463
  H       69.975    -548.105     334.974
  H       71.723    -548.096     334.989

 3  4  5  6  7  8  9  10  11  12  23  26  30  31  33  0
 6-311+G(2d,p)
 ****
 35  36  37  38 0
 6-311+G(2d,p)
 ****
 1  2  13  14  15  16  17  18  19  20  21  22  24  25  27  28  29 0
 3-21G
 ****
 32  34  39  40  41  42  43  44  45  46  47  48  49 0
 3-21G
 ****


