%nproc=1
%NoSave
%Mem=1900MB
#P OB98/GEN NMR

erre ene a

0 1
  C     -173.864     299.166     138.871
  O     -173.433     298.461     140.013
  H     -174.662     299.856     139.161
  H     -174.263     298.470     138.126
  H     -173.043     299.744     138.438
  P     -172.156     297.503     139.852
  C     -171.843     297.778     142.417
  O     -171.855     296.890     141.307
  C     -170.871     297.280     143.486
  O     -171.263     295.940     143.889
  C     -169.416     297.224     143.015
  O     -168.569     297.623     144.098
  C     -169.191     295.753     142.715
  O     -167.817     295.373     142.810
  C     -170.113     295.084     143.743
  N     -170.496     293.734     143.323
  C     -169.470     292.792     143.230
  O     -168.305     293.114     143.492
  N     -169.765     291.528     142.797
  C     -170.968     291.249     142.398
  N     -171.195     289.986     141.951
  C     -172.072     292.232     142.414
  C     -171.768     293.444     142.891
  O     -170.947     298.530     139.631
  O     -172.247     296.491     138.761
  H     -167.453     295.747     143.639
  H     -170.258     298.148     139.057
  H     -173.052     291.965     142.051
  H     -172.509     294.228     142.931
  H     -169.620     295.018     144.720
  H     -169.535     295.529     141.697
  H     -169.217     297.856     142.144
  H     -170.969     297.920     144.372
  H     -170.409     289.345     141.940
  H     -172.852     297.824     142.846
  H     -172.078     289.671     141.575
  H     -171.562     298.781     142.078
  P     -168.328     299.199     144.283
  C     -167.063     298.401     146.407
  O     -167.215     299.407     145.412
  O     -169.682     299.699     144.980
  O     -168.071     299.919     142.998
  H     -170.214     300.218     144.347
  H     -166.285     298.684     147.085
  H     -166.809     297.473     145.940
  H     -167.981     298.290     146.945

 6  7  8  9  10  11  12  13  14  15  16  26  30  31  32  33  35 0
 6-311+G(2d,p)
 ****
 37  38 0
 6-311+G(2d,p)
 ****
 1  2  3  4  5  17  18  19  20  21  22  23  24  25 0
 3-21G
 ****
 27  28  29  34  36  39  40  41  42  43  44  45  46 0
 3-21G
 ****


