%nproc=1
%NoSave
%Mem=1900MB
#P OB98/GEN NMR

erre ene a

0 1
  C     -183.293     115.126     -79.283
  O     -182.950     113.850     -79.790
  H     -184.325     115.092     -78.925
  H     -183.220     115.882     -80.068
  H     -182.642     115.391     -78.446
  P     -181.491     113.646     -80.417
  C     -180.892     111.543     -79.040
  O     -181.183     112.074     -80.327
  C     -179.805     110.478     -79.139
  O     -180.282     109.340     -79.882
  C     -178.531     110.944     -79.840
  O     -177.705     111.672     -78.945
  C     -177.925     109.609     -80.235
  O     -177.320     108.991     -79.082
  C     -179.172     108.811     -80.661
  N     -178.589     106.726     -85.250
  C     -177.975     106.416     -84.053
  N     -177.051     105.431     -84.088
  N     -178.232     107.024     -82.923
  C     -179.123     108.035     -83.051
  C     -179.784     108.448     -84.186
  C     -179.540     107.721     -85.415
  O     -180.084     107.948     -86.494
  N     -180.542     109.567     -83.948
  C     -180.380     109.797     -82.658
  N     -179.520     108.899     -82.068
  O     -180.404     114.510     -79.852
  O     -181.698     113.888     -81.984
  H     -176.809     108.224     -79.402
  H     -181.535     114.820     -82.221
  H     -178.345     106.228     -86.089
  H     -180.861     110.592     -82.103
  H     -179.081     107.745     -80.423
  H     -177.149     109.702     -80.996
  H     -176.704     105.031     -84.947
  H     -178.756     111.514     -80.746
  H     -176.550     105.230     -83.232
  H     -179.586     110.127     -78.121
  H     -181.817     111.110     -78.646
  H     -180.565     112.339     -78.364
  P     -176.782     112.887     -79.451
  C     -177.870     114.572     -77.818
  O     -176.688     113.894     -78.207
  O     -177.220     113.513     -80.731
  O     -175.310     112.272     -79.494
  H     -175.114     111.799     -80.340
  H     -177.659     115.205     -76.981
  H     -178.618     113.857     -77.545
  H     -178.225     115.166     -78.634

 6  7  8  9  10  11  12  13  14  15  26  29  33  34 0
 6-311+G(2d,p)
 ****
 36  38  39  40  41 0
 6-311+G(2d,p)
 ****
 1  2  3  4  5  16  17  18  19  20  21  22  23  24  25 0
 3-21G
 ****
 27  28  30  31  32  35  37  42  43  44  45  46  47 0
 3-21G
 ****
 48  49 0
 3-21G
 ****


