%nproc=1
%NoSave
%Mem=1900MB
#P OB98/GEN NMR

erre ene a

0 1
  C      431.739     526.900     764.911
  O      431.959     527.117     763.534
  H      432.683     527.045     765.447
  H      431.405     525.868     765.070
  H      431.000     527.592     765.315
  P      430.690     527.253     762.557
  C      430.603     524.710     762.150
  O      429.905     525.853     762.632
  C      429.664     523.494     762.064
  O      429.422     523.002     763.420
  C      428.293     523.807     761.434
  O      427.851     522.616     760.764
  C      427.444     524.078     762.662
  O      426.059     523.996     762.355
  C      427.987     523.030     763.628
  N      427.648     523.317     765.019
  C      427.872     522.302     765.935
  O      428.321     521.189     765.625
  N      427.553     522.570     767.236
  C      426.966     523.721     767.684
  O      426.660     523.894     768.861
  C      426.702     524.747     766.663
  C      427.053     524.503     765.393
  O      430.978     527.727     761.178
  O      429.694     528.245     763.336
  H      425.837     524.676     761.680
  H      429.164     528.750     762.698
  H      427.718     521.840     767.913
  H      426.230     525.668     766.991
  H      426.879     525.252     764.619
  H      427.599     522.033     763.389
  H      427.632     525.083     763.044
  H      428.323     524.645     760.733
  H      430.184     522.688     761.519
  H      431.427     524.489     762.837
  H      431.019     524.919     761.159
  P      428.032     522.391     759.190
  C      426.322     524.100     758.274
  O      427.698     523.782     758.434
  O      427.294     521.225     758.641
  O      429.609     522.232     758.974
  H      429.778     521.683     758.196
  H      426.229     525.036     757.764
  H      425.858     524.170     759.236
  H      425.843     523.333     757.702

 6  7  8  9  10  11  12  13  14  15  16  26  31  32  33  34  35 0
 6-311+G(2d,p)
 ****
 36  37 0
 6-311+G(2d,p)
 ****
 1  2  3  4  5  17  18  19  20  21  22  23  24  25 0
 3-21G
 ****
 27  28  29  30  38  39  40  41  42  43  44  45 0
 3-21G
 ****


