%nproc=1
%NoSave
%Mem=1900MB
#P OB98/GEN NMR

erre ene a

0 1
  C      700.952    -476.411     109.258
  O      702.233    -476.524     109.851
  H      700.234    -476.123     110.032
  H      700.648    -477.374     108.833
  H      700.959    -475.646     108.479
  P      703.440    -476.926     108.870
  C      704.961    -474.925     109.562
  O      704.774    -476.330     109.543
  C      706.440    -474.586     109.768
  O      706.866    -475.119     111.067
  C      707.376    -475.198     108.714
  O      708.524    -474.344     108.580
  C      707.789    -476.503     109.382
  O      708.902    -477.079     108.730
  C      707.982    -476.002     110.806
  N      710.615    -480.021     112.571
  C      710.888    -479.129     111.595
  N      710.141    -478.074     111.193
  C      709.022    -477.981     111.923
  C      708.608    -478.809     112.955
  C      709.463    -479.882     113.278
  N      709.184    -480.796     114.251
  N      707.387    -478.392     113.464
  C      707.070    -477.332     112.757
  N      708.024    -477.046     111.809
  O      703.201    -475.991     107.591
  O      703.515    -478.367     108.503
  H      709.235    -477.847     109.234
  H      702.699    -476.480     106.912
  H      711.831    -479.278     111.071
  H      706.175    -476.727     112.871
  H      708.893    -475.407     110.920
  H      706.982    -477.239     109.334
  H      706.903    -475.328     107.737
  H      706.561    -473.498     109.829
  H      704.365    -474.499     110.368
  H      704.623    -474.500     108.601
  H      709.842    -481.547     114.413
  H      708.319    -480.718     114.780
  P      708.691    -473.452     107.257
  C      710.554    -472.126     108.528
  O      710.114    -472.707     107.315
  O      707.674    -472.246     107.535
  O      708.358    -474.136     105.968
  H      707.339    -471.891     106.687
  H      711.514    -471.678     108.381
  H      710.625    -472.883     109.281
  H      709.855    -471.378     108.839

 6  7  8  9  10  11  12  13  14  15  25  28  32  33  34  35 0
 6-311+G(2d,p)
 ****
 36  37  40 0
 6-311+G(2d,p)
 ****
 1  2  3  4  5  16  17  18  19  20  21  22  23  24 0
 3-21G
 ****
 26  27  29  30  31  38  39 41  42  43  44  45  46  47  48 0
 3-21G
 ****


