%nproc=1
%NoSave
%Mem=1900MB
#P OB98/GEN NMR

erre ene a

0 1
  C      489.193     387.197     648.806
  O      490.198     388.132     649.129
  H      489.336     386.887     647.765
  H      488.207     387.652     648.905
  H      489.264     386.309     649.445
  P      490.225     388.747     650.607
  C      492.757     388.149     650.557
  O      491.780     389.139     650.851
  C      494.157     388.752     650.624
  O      494.385     389.401     651.908
  C      495.294     387.745     650.490
  O      495.474     387.261     649.181
  C      496.462     388.621     650.942
  O      496.808     389.536     649.895
  C      495.823     389.362     652.152
  N      496.083     388.696     653.425
  C      496.927     389.376     654.328
  O      497.414     390.488     654.027
  N      497.212     388.797     655.536
  C      496.745     387.626     655.823
  N      497.075     387.077     657.028
  C      495.878     386.853     654.897
  C      495.597     387.453     653.732
  O      489.599     387.924     651.680
  O      489.560     390.196     650.449
  H      497.623     390.010     650.197
  H      489.535     390.626     651.343
  H      495.531     385.864     655.169
  H      494.967     386.939     653.005
  H      496.174     390.395     652.198
  H      497.355     388.030     651.197
  H      495.174     386.919     651.208
  H      494.212     389.532     649.854
  H      497.671     387.630     657.636
  H      492.553     387.749     649.560
  H      496.804     386.147     657.304
  H      492.687     387.327     651.291
  P      496.496     386.033     648.995
  C      495.236     385.863     646.701
  O      496.428     385.611     647.444
  O      495.774     384.826     649.750
  O      497.891     386.283     649.502
  H      496.142     384.714     650.656
  H      495.364     385.522     645.695
  H      495.033     386.914     646.698
  H      494.417     385.343     647.153

 6  7  8  9  10  11  12  13  14  15  16  26  30  31  32  33  35 0
 6-311+G(2d,p)
 ****
 37  38 0
 6-311+G(2d,p)
 ****
 1  2  3  4  5  17  18  19  20  21  22  23  24  25 0
 3-21G
 ****
 27  28  29  34  36  39  40  41  42  43  44  45  46 0
 3-21G
 ****


