%nproc=1
%NoSave
%Mem=1900MB
#P OB98/GEN NMR

erre ene a

0 1
  C     -358.836     246.395    -514.013
  O     -359.305     245.671    -515.130
  H     -357.824     246.750    -514.224
  H     -358.800     245.748    -513.131
  H     -359.475     247.261    -513.813
  P     -360.832     245.179    -515.147
  C     -361.965     246.296    -517.177
  O     -361.702     246.371    -515.778
  C     -361.700     247.653    -517.823
  O     -360.277     247.921    -517.852
  C     -362.157     247.745    -519.275
  O     -363.569     247.872    -519.368
  C     -361.367     248.947    -519.754
  O     -362.005     250.170    -519.383
  C     -360.033     248.775    -518.993
  N     -358.979     248.221    -519.849
  C     -358.368     249.109    -520.727
  O     -358.666     250.304    -520.801
  N     -357.443     248.565    -521.579
  C     -357.175     247.237    -521.721
  O     -356.526     246.774    -522.652
  C     -357.799     246.355    -520.729
  C     -358.669     246.876    -519.859
  O     -361.346     244.629    -513.859
  O     -360.852     244.069    -516.308
  H     -360.846     243.185    -515.901
  H     -362.836     250.207    -519.913
  H     -357.025     249.200    -522.246
  H     -357.556     245.297    -520.757
  H     -359.170     246.232    -519.128
  H     -359.686     249.741    -518.599
  H     -361.253     248.944    -520.842
  H     -361.829     246.854    -519.824
  H     -362.180     248.428    -517.214
  H     -363.016     246.024    -517.319
  H     -361.327     245.527    -517.620
  P     -364.444     246.691    -519.990
  C     -366.094     245.878    -518.199
  O     -364.830     245.667    -518.820
  O     -363.873     246.054    -521.219
  O     -365.851     247.390    -520.317
  H     -366.103     247.179    -521.243
  H     -366.245     245.141    -517.438
  H     -366.869     245.798    -518.932
  H     -366.117     246.854    -517.760

 6  7  8  9  10  11  12  13  14  15  16  27  31  32  33  34  35 0
 6-311+G(2d,p)
 ****
 36  37 0
 6-311+G(2d,p)
 ****
 1  2  3  4  5  17  18  19  20  21  22  23  24  25 0
 3-21G
 ****
 26  28  29  30  38  39  40  41  42  43  44  45 0
 3-21G
 ****


