%nproc=1
%NoSave
%Mem=1900MB
#P OB98/GEN NMR

erre ene a

0 1
  C       22.115    -215.445    1078.855
  O       23.364    -215.577    1079.499
  H       22.285    -215.390    1077.776
  H       21.612    -214.535    1079.182
  H       21.483    -216.317    1079.070
  P       23.341    -215.854    1081.080
  C       25.049    -216.995    1082.717
  O       24.526    -216.894    1081.398
  C       25.980    -218.207    1082.809
  O       25.240    -219.439    1082.665
  C       27.032    -218.276    1081.724
  O       28.044    -217.300    1081.872
  C       27.517    -219.708    1081.894
  O       28.434    -219.810    1082.992
  C       26.188    -220.440    1082.214
  N       25.681    -221.207    1081.069
  C       26.450    -222.306    1080.674
  O       27.481    -222.593    1081.271
  N       26.056    -223.032    1079.586
  C       24.961    -222.707    1078.952
  N       24.607    -223.459    1077.881
  C       24.103    -221.570    1079.354
  C       24.516    -220.866    1080.405
  O       22.029    -216.748    1081.260
  O       23.384    -214.628    1081.941
  H       28.546    -220.778    1083.168
  H       22.008    -217.521    1080.681
  H       23.192    -221.336    1078.808
  H       23.948    -220.007    1080.760
  H       26.332    -221.149    1083.049
  H       28.039    -220.069    1081.007
  H       26.551    -218.201    1080.738
  H       26.437    -218.208    1083.813
  H       25.236    -224.210    1077.623
  H       24.248    -217.067    1083.453
  H       23.800    -223.285    1077.292
  H       25.612    -216.077    1082.919
  P       29.217    -217.169    1080.797
  C       30.502    -215.241    1079.673
  O       29.416    -215.609    1080.521
  O       29.054    -218.004    1079.563
  O       30.531    -217.540    1081.645
  H       30.703    -216.958    1082.391
  H       30.527    -214.176    1079.568
  H       30.372    -215.691    1078.711
  H       31.421    -215.579    1080.104

 6  7  8  9  10  11  12  13  14  15  16  26  30  31  32  33  35 0
 6-311+G(2d,p)
 ****
 37  38 0
 6-311+G(2d,p)
 ****
 1  2  3  4  5  17  18  19  20  21  22  23  24  25 0
 3-21G
 ****
 27  28  29  34  36  39  40  41  42  43  44  45  46 0
 3-21G
 ****


