%nproc=1
%NoSave
%Mem=1900MB
#P OB98/GEN NMR

erre ene a

0 1
  C       58.380     -21.840     158.490
  O       58.560     -21.661     159.887
  P       57.352     -21.007     160.715
  C       54.886     -21.692     161.095
  O       56.011     -21.745     160.227
  C       53.603     -22.025     160.344
  O       53.220     -20.876     159.538
  C       53.720     -23.231     159.399
  O       52.547     -24.049     159.532
  C       53.688     -22.605     158.016
  O       53.211     -23.513     157.028
  C       52.774     -21.408     158.274
  N       49.913     -18.517     155.282
  C       49.562     -19.260     156.388
  N       48.247     -19.277     156.708
  N       50.414     -19.928     157.119
  C       51.697     -19.795     156.700
  C       52.172     -19.083     155.626
  C       51.208     -18.396     154.793
  O       51.447     -17.795     153.745
  N       53.538     -19.173     155.532
  C       53.888     -19.941     156.544
  N       52.801     -20.385     157.254
  O       57.235     -19.543     160.079
  O       57.554     -20.939     162.190
  H       52.281     -23.715     157.250
  H       57.318     -18.870     160.783
  H       49.213     -18.034     154.745
  H       54.904     -20.228     156.780
  H       51.734     -21.737     158.390
  H       54.701     -22.288     157.741
  H       47.542     -18.756     156.213
  H       54.615     -23.842     159.557
  H       47.972     -19.799     157.532
  H       52.801     -22.182     161.075
  H       54.806     -20.686     161.517
  H       55.039     -22.405     161.912
  P       52.705     -25.583     159.080
  C       54.294     -27.489     159.875
  O       54.063     -26.097     159.754
  O       53.066     -25.476     157.526
  O       51.492     -26.414     159.329
  H       52.812     -26.296     157.060
  H       53.552     -28.078     159.327
  H       54.255     -27.765     160.931
  H       55.290     -27.718     159.484
  H       59.259     -22.283     158.071
  H       58.204     -20.891     158.029
  H       57.541     -22.481     158.318

 3  4  5  6  7  8  9  10  11  12  23  26  30  31  33  0
 6-311+G(2d,p)
 ****
 35  36  37  38 0
 6-311+G(2d,p)
 ****
 1  2  13  14  15  16  17  18  19  20  21  22  24  25  27  28  29 0
 3-21G
 ****
 32  34  39  40  41  42  43  44  45  46  47  48  49 0
 3-21G
 ****


