%nproc=1
%NoSave
%Mem=1900MB
#P OB98/GEN NMR

erre ene a

0 1
  C     -442.058    -793.834    -553.663
  O     -441.999    -792.416    -553.690
  P     -443.077    -791.655    -554.616
  C     -443.821    -789.513    -553.336
  O     -444.056    -790.880    -553.611
  C     -443.988    -789.255    -551.829
  O     -442.969    -789.951    -551.082
  C     -443.902    -787.785    -551.421
  O     -445.129    -787.125    -551.650
  C     -443.513    -787.894    -549.954
  O     -444.671    -788.154    -549.141
  C     -442.571    -789.111    -549.964
  N     -438.455    -787.681    -547.377
  C     -439.777    -787.778    -546.974
  N     -440.025    -787.487    -545.680
  N     -440.763    -788.126    -547.758
  C     -440.363    -788.360    -549.036
  C     -439.092    -788.290    -549.560
  C     -438.005    -787.963    -548.674
  O     -436.811    -787.963    -548.961
  N     -439.088    -788.592    -550.901
  C     -440.348    -788.877    -551.174
  N     -441.159    -788.772    -550.070
  O     -443.977    -792.844    -555.185
  O     -442.495    -790.797    -555.694
  H     -445.436    -787.684    -549.510
  H     -443.682    -793.090    -556.096
  H     -437.742    -787.432    -546.729
  H     -440.722    -789.178    -552.145
  H     -442.676    -789.719    -549.056
  H     -443.064    -786.979    -549.576
  H     -439.326    -787.194    -545.017
  H     -443.085    -787.296    -551.977
  H     -440.982    -787.552    -545.353
  H     -444.961    -789.677    -551.522
  H     -444.553    -788.899    -553.883
  H     -442.806    -789.233    -553.656
  P     -445.232    -786.160    -552.931
  C     -447.586    -786.857    -553.809
  O     -446.177    -786.897    -554.000
  O     -443.770    -786.257    -553.584
  O     -445.605    -784.753    -552.614
  H     -443.525    -785.385    -553.957
  H     -448.072    -786.912    -554.779
  H     -447.888    -785.948    -553.296
  H     -447.888    -787.737    -553.215
  H     -441.294    -794.210    -553.015
  H     -441.908    -794.216    -554.651
  H     -443.016    -794.144    -553.302

 3  4  5  6  7  8  9  10  11  12  23  26  30  31 0
 6-311+G(2d,p)
 ****
 33  35  36  37  38 0
 6-311+G(2d,p)
 ****
 1  2  13  14  15  16  17  18  19  20  21  22  24  25 0
 3-21G
 ****
 27  28  29  32  34  39  40  41  42  43  44  45  46  47  48  49 0
 3-21G
 ****


