%nproc=1
%NoSave
%Mem=1900MB
#P OB98/GEN NMR

erre ene a

0 1
  C        2.025    -898.620      31.190
  O        2.290    -898.710      32.573
  H        1.888    -899.630      30.794
  H        2.857    -898.140      30.663
  H        1.103    -898.050      31.023
  P        2.785    -897.390      33.342
  C        5.252    -897.500      32.584
  O        4.340    -897.640      33.666
  C        6.185    -896.300      32.802
  O        5.420    -895.080      32.873
  C        6.959    -896.370      34.111
  O        7.944    -897.370      34.149
  C        7.364    -894.910      34.319
  O        8.566    -894.560      33.653
  C        6.168    -894.150      33.684
  N        5.330    -893.500      34.690
  C        5.889    -892.390      35.308
  O        7.021    -891.960      35.063
  N        5.111    -891.790      36.263
  C        3.893    -892.220      36.680
  O        3.263    -891.660      37.578
  C        3.365    -893.430      36.013
  C        4.102    -894.010      35.058
  O        1.972    -896.990      34.538
  O        2.829    -896.280      32.194
  H        9.280    -895.120      34.041
  H        2.860    -895.370      32.577
  H        5.490    -890.970      36.710
  H        2.404    -893.800      36.324
  H        3.740    -894.900      34.549
  H        6.542    -893.370      33.000
  H        7.502    -894.690      35.385
  H        6.245    -896.600      34.917
  H        6.869    -896.230      31.948
  H        4.660    -897.340      31.676
  H        5.835    -898.420      32.466
  P        7.755    -898.740      34.948
  C        8.380    -897.740      37.261
  O        8.692    -898.700      36.266
  O        7.733    -900.000      34.130
  O        6.285    -898.550      35.576
  H        5.854    -899.430      35.596
  H        9.075    -897.825      38.070
  H        7.388    -897.912      37.624
  H        8.441    -896.758      36.841

 6  7  8  9  10  11  12  13  14  15  16  26  31  32  33  34  35 0
 6-311+G(2d,p)
 ****
 36  37 0
 6-311+G(2d,p)
 ****
 1  2  3  4  5  17  18  19  20  21  22  23  24  25 0
 3-21G
 ****
 27  28  29  30  38  39  40  41  42  43  44  45 0
 3-21G
 ****


