%nproc=1
%NoSave
%Mem=1900MB
#P OB98/GEN NMR

erre ene a

0 1
  C      116.455      55.643      50.899
  O      115.200      56.312      50.917
  P      114.652      56.858      52.322
  C      116.785      58.255      52.792
  O      115.936      57.202      53.224
  C      117.863      58.558      53.833
  O      118.832      59.474      53.256
  C      117.340      59.204      55.120
  O      118.167      58.741      56.194
  C      117.601      60.681      54.893
  O      117.639      61.416      56.113
  C      118.928      60.610      54.141
  N      120.947      65.304      54.295
  C      120.868      64.329      55.226
  N      120.316      63.104      55.108
  C      119.805      62.929      53.878
  C      119.780      63.844      52.839
  C      120.390      65.086      53.080
  N      120.481      66.078      52.131
  N      119.142      63.309      51.739
  C      118.789      62.095      52.106
  N      119.190      61.813      53.381
  O      114.059      55.537      53.003
  O      113.625      57.932      52.229
  H      118.390      61.090      56.643
  H      113.085      55.600      53.057
  H      121.315      64.561      56.189
  H      118.247      61.390      51.493
  H      119.777      60.444      54.815
  H      116.809      61.105      54.266
  H      116.287      58.990      55.332
  H      118.395      57.626      54.059
  H      116.181      59.154      52.643
  H      121.051      66.881      52.334
  H      120.241      65.856      51.171
  H      117.247      57.985      51.837
  P      117.433      58.377      57.571
  C      117.183      56.064      56.423
  O      116.638      57.011      57.322
  O      116.277      59.479      57.677
  O      118.330      58.402      58.765
  H      116.057      59.643      58.612
  H      116.928      55.060      56.771
  H      118.272      56.149      56.352
  H      116.748      56.219      55.432
  H      116.683      55.340      49.899
  H      116.409      54.781      51.531
  H      117.217      56.305      51.254

 3  4  5  6  7  8  9  10  11  12  22  25  29  30  31  32 0
 6-311+G(2d,p)
 ****
 33  36  37 0
 6-311+G(2d,p)
 ****
 1  2  13  14  15  16  17  18  19  20  21  23  24  26 0
 3-21G
 ****
 27  28  34  35  38  39  40  41  42  43  44  45  46  47  48 0
 3-21G
 ****


