%nproc=1
%NoSave
%Mem=1900MB
#P OB98/GEN NMR

erre ene a

0 1
  C      268.723    -385.828     250.891
  O      270.046    -386.326     250.929
  H      268.428    -385.696     249.847
  H      268.666    -384.862     251.397
  H      268.042    -386.538     251.363
  P      270.713    -386.495     252.378
  C      271.640    -384.812     254.127
  O      270.739    -385.040     253.050
  C      272.295    -383.447     253.962
  O      271.302    -382.467     253.572
  C      272.918    -382.898     255.239
  O      274.185    -383.469     255.520
  C      273.015    -381.420     254.902
  O      274.204    -381.122     254.156
  C      271.753    -381.187     254.053
  N      270.718    -380.486     254.808
  C      270.584    -379.128     254.536
  O      271.282    -378.532     253.716
  N      269.643    -378.461     255.273
  C      268.876    -378.997     256.264
  O      268.087    -378.328     256.923
  C      269.069    -380.433     256.519
  C      269.970    -381.103     255.793
  O      272.250    -386.791     252.037
  O      270.113    -387.568     253.225
  H      272.450    -387.730     252.198
  H      274.932    -381.097     254.807
  H      269.530    -377.478     255.088
  H      268.475    -380.890     257.301
  H      270.141    -382.160     255.969
  H      271.993    -380.586     253.167
  H      273.041    -380.815     255.804
  H      272.231    -383.026     256.083
  H      273.046    -383.514     253.163
  H      272.420    -385.582     254.128
  H      271.088    -384.874     255.072
  P      274.731    -383.370     257.025
  C      275.021    -381.331     258.665
  O      274.869    -381.804     257.337
  O      276.235    -383.881     256.827
  O      273.918    -384.154     257.999
  H      276.560    -383.707     255.925
  H      275.095    -380.264     258.657
  H      275.909    -381.747     259.092
  H      274.173    -381.625     259.248

 6  7  8  9  10  11  12  13  14  15  16  27  31  32  33  34  35 0
 6-311+G(2d,p)
 ****
 36  37 0
 6-311+G(2d,p)
 ****
 1  2  3  4  5  17  18  19  20  21  22  23  24  25 0
 3-21G
 ****
 26  28  29  30  38  39  40  41  42  43  44  45 0
 3-21G
 ****


