%nproc=1
%NoSave
%Mem=1900MB
#P OB98/GEN NMR

erre ene a

0 1
  C     -127.143      10.032     153.389
  O     -127.535       8.944     154.204
  H     -128.018      10.656     153.191
  H     -126.747       9.668     152.435
  H     -126.388      10.633     153.904
  P     -126.393       7.881     154.582
  C     -125.948       6.471     156.708
  O     -126.616       7.591     156.145
  C     -125.582       6.742     158.165
  O     -124.612       7.802     158.246
  C     -126.756       7.170     159.040
  O     -127.477       6.035     159.493
  C     -126.029       7.861     160.181
  O     -125.541       6.874     161.111
  C     -124.846       8.541     159.471
  N     -124.289      13.380     161.091
  C     -124.163      12.200     161.737
  N     -124.379      10.955     161.258
  C     -124.754      10.996     159.969
  C     -124.928      12.128     159.187
  C     -124.672      13.367     159.792
  N     -124.804      14.571     159.135
  N     -125.325      11.784     157.909
  C     -125.330      10.466     157.908
  N     -125.031       9.941     159.140
  O     -125.007       8.246     154.173
  O     -126.975       6.554     153.897
  H     -125.262       7.354     161.915
  H     -127.938       6.496     154.030
  H     -123.849      12.264     162.775
  H     -125.528       9.845     157.040
  H     -123.924       8.481     160.069
  H     -126.676       8.537     160.746
  H     -127.399       7.897     158.531
  H     -125.110       5.835     158.567
  H     -125.043       6.241     156.133
  H     -124.791      15.407     159.697
  H     -125.214      14.561     158.214
  H     -126.626       5.612     156.640
  P     -128.770       6.194     160.429
  C     -130.742       4.643     160.993
  O     -129.697       4.935     160.072
  O     -129.431       7.527     160.349
  O     -128.242       5.849     161.898
  H     -128.879       6.172     162.565
  H     -131.289       3.789     160.652
  H     -131.400       5.484     161.064
  H     -130.322       4.437     161.955

 6  7  8  9  10  11  12  13  14  15  25  28  32  33  34  35 0
 6-311+G(2d,p)
 ****
 36  39  40 0
 6-311+G(2d,p)
 ****
 1  2  3  4  5  16  17  18  19  20  21  22  23  24 0
 3-21G
 ****
 26  27  29  30  31  37  38  41  42  43  44  45  46  47 0
 3-21G
 ****
 48 0
 3-21G
 ****


