%nproc=1
%NoSave
%Mem=1900MB
#P OB98/GEN NMR

erre ene a

0 1
  C      289.463    -491.920    -629.460
  O      288.568    -492.266    -630.504
  H      288.967    -492.092    -628.500
  H      289.727    -490.852    -629.533
  H      290.370    -492.530    -629.516
  P      289.093    -492.020    -632.004
  C      287.948    -494.292    -632.509
  O      288.198    -492.961    -632.950
  C      286.977    -494.992    -633.458
  O      285.644    -494.412    -633.372
  C      287.385    -494.940    -634.931
  O      288.316    -495.961    -635.234
  C      286.044    -495.144    -635.615
  O      285.681    -496.541    -635.637
  C      285.079    -494.353    -634.704
  N      281.813    -491.108    -636.785
  C      281.717    -492.473    -636.602
  N      280.609    -493.073    -637.078
  N      282.645    -493.203    -636.025
  C      283.738    -492.475    -635.656
  C      283.946    -491.123    -635.779
  C      282.887    -490.328    -636.352
  O      282.871    -489.099    -636.476
  N      285.166    -490.751    -635.252
  C      285.711    -491.898    -634.867
  N      284.875    -492.973    -635.081
  O      290.523    -492.737    -632.012
  O      289.198    -490.593    -632.423
  H      285.556    -496.849    -634.725
  H      291.138    -492.197    -632.561
  H      281.055    -490.598    -637.203
  H      286.678    -491.989    -634.403
  H      284.086    -494.815    -634.665
  H      286.068    -494.806    -636.659
  H      280.008    -492.639    -637.769
  H      287.774    -493.939    -635.187
  H      280.579    -494.092    -637.023
  H      286.885    -496.046    -633.121
  H      287.496    -494.247    -631.495
  H      288.884    -494.848    -632.456
  P      289.016    -495.923    -636.683
  C      291.487    -496.419    -636.038
  O      290.292    -496.903    -636.642
  O      289.677    -494.455    -636.737
  O      288.074    -496.151    -637.825
  H      289.136    -493.880    -637.330
  H      292.242    -497.176    -636.085
  H      291.294    -496.170    -635.015
  H      291.823    -495.547    -636.560

 6  7  8  9  10  11  12  13  14  15  26  29  33  34 0
 6-311+G(2d,p)
 ****
 36  38  39  40  41 0
 6-311+G(2d,p)
 ****
 1  2  3  4  5  16  17  18  19  20  21  22  23  24  25 0
 3-21G
 ****
 27  28  30  31  32  35  37  42  43  44  45  46  47 0
 3-21G
 ****
 48  49 0
 3-21G
 ****


