%nproc=1
%NoSave
%Mem=1900MB
#P OB98/GEN NMR

erre ene a

0 1
  C      287.791     173.692      -6.099
  O      288.202     174.330      -4.878
  P      289.135     175.635      -4.955
  C      291.498     174.530      -4.926
  O      290.536     175.284      -5.650
  C      292.697     174.155      -5.814
  O      293.668     173.383      -5.043
  C      292.338     173.319      -7.049
  O      293.257     173.689      -8.090
  C      292.618     171.902      -6.582
  O      292.791     170.983      -7.650
  C      293.880     172.139      -5.745
  N      294.187     171.059      -4.806
  C      294.858     169.939      -5.295
  O      295.155     169.771      -6.476
  N      295.162     168.976      -4.368
  C      294.836     168.999      -3.042
  O      295.111     168.088      -2.270
  C      294.105     170.189      -2.589
  C      293.821     171.145      -3.476
  O      289.556     175.835      -3.424
  O      288.467     176.868      -5.472
  H      293.609     171.230      -8.121
  H      289.463     176.776      -3.174
  H      295.660     168.166      -4.702
  H      293.831     170.251      -1.543
  H      293.292     172.043      -3.160
  H      294.737     172.291      -6.410
  H      291.780     171.550      -5.971
  H      291.305     173.471      -7.384
  H      293.201     175.084      -6.112
  H      291.032     173.613      -4.554
  H      291.838     175.116      -4.066
  P      292.676     174.408      -9.402
  C      292.663     172.366     -11.034
  O      291.926     173.292     -10.267
  O      294.035     174.655     -10.218
  O      291.914     175.667      -9.132
  H      294.615     173.873     -10.224
  H      293.546     172.013     -10.492
  H      292.970     172.829     -11.976
  H      292.023     171.503     -11.256
  H      287.179     172.845      -5.870
  H      288.655     173.371      -6.642
  H      287.233     174.385      -6.693

 3  4  5  6  7  8  9  10  11  12  13  23  28  29  30  31  32 0
 6-311+G(2d,p)
 ****
 33  34 0
 6-311+G(2d,p)
 ****
 1  2  14  15  16  17  18  19  20  21  22  24  25  26 0
 3-21G
 ****
 27  35  36  37  38  39  40  41  42  43  44  45 0
 3-21G
 ****


