%nproc=1
%NoSave
%Mem=1900MB
#P OB98/GEN NMR

erre ene a

0 1
  C      -25.141     115.545      50.967
  O      -24.882     115.400      52.347
  H      -26.083     116.086      50.844
  H      -25.238     114.565      50.495
  H      -24.345     116.115      50.480
  P      -23.490     114.756      52.810
  C      -22.327     117.033      53.129
  O      -22.341     115.803      52.417
  C      -21.039     117.794      52.827
  O      -21.039     119.069      53.507
  C      -19.776     117.077      53.290
  O      -19.456     116.010      52.421
  C      -18.787     118.232      53.292
  O      -18.321     118.515      51.964
  C      -19.665     119.391      53.818
  N      -19.490     119.632      55.251
  C      -18.677     120.706      55.597
  O      -18.121     121.426      54.771
  N      -18.485     120.899      56.940
  C      -18.943     120.084      57.935
  O      -18.568     120.166      59.101
  C      -19.856     119.012      57.514
  C      -20.072     118.828      56.210
  O      -23.245     113.353      52.366
  O      -23.539     114.865      54.408
  H      -23.780     113.996      54.782
  H      -19.115     118.561      51.396
  H      -17.859     121.646      57.201
  H      -20.292     118.384      58.280
  H      -20.719     118.024      55.875
  H      -19.429     120.322      53.286
  H      -17.906     118.023      53.902
  H      -19.902     116.718      54.317
  H      -21.003     117.987      51.747
  H      -22.377     116.814      54.202
  H      -23.204     117.622      52.845
  P      -18.066     115.228      52.547
  C      -18.940     113.887      54.547
  O      -17.908     114.735      54.063
  O      -16.880     115.955      52.005
  O      -18.309     113.860      51.748
  H      -17.603     113.749      51.083
  H      -18.735     113.620      55.563
  H      -18.985     113.002      53.947
  H      -19.877     114.401      54.495

 6  7  8  9  10  11  12  13  14  15  16  27  31  32  33  34  35 0
 6-311+G(2d,p)
 ****
 36  37 0
 6-311+G(2d,p)
 ****
 1  2  3  4  5  17  18  19  20  21  22  23  24  25 0
 3-21G
 ****
 26  28  29  30  38  39  40  41  42  43  44  45 0
 3-21G
 ****


