%nproc=1
%NoSave
%Mem=1900MB
#P OB98/GEN NMR

erre ene a

0 1
  C      120.020     829.735     282.760
  O      120.226     828.888     281.645
  H      120.409     830.728     282.525
  H      120.544     829.347     283.638
  H      118.948     829.821     282.978
  P      119.739     827.367     281.744
  C      121.949     826.892     282.989
  O      121.064     826.489     281.951
  C      122.756     825.693     283.483
  O      121.916     824.780     284.207
  C      123.409     824.888     282.352
  O      124.610     825.515     281.926
  C      123.650     823.561     283.064
  O      124.792     823.680     283.934
  C      122.361     823.418     283.896
  N      120.867     819.034     281.845
  C      122.083     819.382     282.399
  N      123.051     818.446     282.355
  N      122.337     820.550     282.918
  C      121.291     821.416     282.830
  C      120.039     821.184     282.287
  C      119.758     819.862     281.774
  O      118.685     819.504     281.287
  N      119.274     822.316     282.319
  C      120.024     823.220     282.907
  N      121.278     822.728     283.218
  O      118.856     826.877     280.628
  O      119.012     827.280     283.165
  H      125.561     823.872     283.366
  H      118.058     827.446     283.087
  H      120.741     818.116     281.448
  H      119.726     824.239     283.127
  H      122.533     822.909     284.847
  H      123.841     822.735     282.381
  H      123.001     817.655     281.721
  H      122.714     824.713     281.524
  H      123.968     818.700     282.705
  H      123.517     826.061     284.178
  H      121.341     827.293     283.806
  H      122.629     827.674     282.628
  P      124.802     825.978     280.394
  C      125.350     823.543     279.723
  O      125.797     824.888     279.754
  O      125.223     827.392     280.213
  O      123.404     825.624     279.698
  H      122.735     826.348     279.755
  H      126.102     822.927     279.275
  H      124.449     823.480     279.149
  H      125.161     823.207     280.721

 6  7  8  9  10  11  12  13  14  15  26  29  33  34 0
 6-311+G(2d,p)
 ****
 36  38  39  40  41 0
 6-311+G(2d,p)
 ****
 1  2  3  4  5  16  17  18  19  20  21  22  23  24  25 0
 3-21G
 ****
 27  28  30  31  32  35  37  42  43  44  45  46  47 0
 3-21G
 ****
 48  49 0
 3-21G
 ****


