%nproc=1
%NoSave
%Mem=1900MB
#P OB98/GEN NMR

erre ene a

0 1
  C      686.756     924.545    -363.379
  O      687.520     923.464    -362.888
  H      686.650     924.434    -364.462
  H      687.263     925.488    -363.169
  H      685.762     924.547    -362.922
  P      687.674     923.330    -361.296
  C      686.303     921.126    -361.196
  O      686.407     922.480    -360.777
  C      684.845     920.774    -361.489
  O      684.107     920.722    -360.242
  C      684.152     921.771    -362.406
  O      683.271     921.060    -363.298
  C      683.312     922.618    -361.469
  O      682.183     923.221    -362.099
  C      682.971     921.600    -360.363
  N      682.661     922.258    -359.097
  C      681.296     922.401    -358.786
  O      680.442     921.999    -359.566
  N      680.955     923.060    -357.634
  C      681.881     923.619    -356.901
  N      681.466     924.286    -355.791
  C      683.321     923.541    -357.230
  C      683.634     922.861    -358.334
  O      687.353     924.807    -360.763
  O      688.995     922.816    -360.818
  H      681.633     922.498    -362.493
  H      687.867     925.008    -359.953
  H      684.038     924.034    -356.604
  H      684.664     922.758    -358.657
  H      682.109     920.987    -360.665
  H      683.938     923.431    -361.046
  H      684.842     922.374    -363.007
  H      684.815     919.758    -361.921
  H      680.476     924.317    -355.610
  H      686.666     920.474    -360.389
  H      682.093     924.781    -355.174
  H      686.932     920.962    -362.089
  P      683.043     921.697    -364.736
  C      683.277     919.375    -365.912
  O      683.728     920.721    -365.840
  O      683.991     922.987    -364.751
  O      681.630     922.064    -365.026
  H      683.455     923.799    -364.689
  H      683.816     918.859    -366.679
  H      682.231     919.361    -366.139
  H      683.444     918.892    -364.972

 6  7  8  9  10  11  12  13  14  15  16  26  30  31  32  33  35 0
 6-311+G(2d,p)
 ****
 37  38 0
 6-311+G(2d,p)
 ****
 1  2  3  4  5  17  18  19  20  21  22  23  24  25 0
 3-21G
 ****
 27  28  29  34  36  39  40  41  42  43  44  45  46 0
 3-21G
 ****


