%nproc=1
%NoSave
%Mem=1900MB
#P OB98/GEN NMR

erre ene a

0 1
  C     -343.242      81.273    -329.272
  O     -341.923      80.776    -329.360
  H     -343.911      80.450    -328.997
  H     -343.563      81.679    -330.238
  H     -343.301      82.052    -328.506
  P     -340.801      81.816    -329.861
  C     -340.259      82.788    -332.222
  O     -341.126      81.990    -331.426
  C     -340.846      82.945    -333.625
  O     -342.207      83.428    -333.553
  C     -340.106      83.945    -334.502
  O     -338.908      83.416    -335.056
  C     -341.155      84.205    -335.568
  O     -341.203      83.089    -336.480
  C     -342.438      84.281    -334.710
  N     -342.768      85.648    -334.288
  C     -343.530      86.408    -335.175
  O     -343.888      85.945    -336.256
  N     -343.854      87.705    -334.832
  C     -343.449      88.190    -333.696
  N     -343.784      89.481    -333.413
  C     -342.659      87.414    -332.723
  C     -342.354      86.169    -333.081
  O     -339.460      80.944    -329.877
  O     -340.702      83.093    -329.090
  H     -340.355      83.081    -336.959
  H     -338.729      81.466    -330.290
  H     -342.341      87.863    -331.795
  H     -341.777      85.536    -332.414
  H     -343.298      83.865    -335.249
  H     -340.952      85.101    -336.164
  H     -339.903      84.885    -333.969
  H     -340.882      81.947    -334.090
  H     -344.268      90.005    -334.125
  H     -339.281      82.294    -332.274
  H     -343.367      89.994    -332.644
  H     -340.132      83.777    -331.768
  P     -337.659      84.410    -335.222
  C     -337.130      86.364    -336.857
  O     -338.130      85.600    -336.194
  O     -336.651      83.570    -336.135
  O     -337.027      84.853    -333.940
  H     -335.724      83.710    -335.855
  H     -337.596      87.112    -337.463
  H     -336.541      85.720    -337.476
  H     -336.501      86.834    -336.131

 6  7  8  9  10  11  12  13  14  15  16  26  30  31  32  33  35 0
 6-311+G(2d,p)
 ****
 37  38 0
 6-311+G(2d,p)
 ****
 1  2  3  4  5  17  18  19  20  21  22  23  24  25 0
 3-21G
 ****
 27  28  29  34  36  39  40  41  42  43  44  45  46 0
 3-21G
 ****


