%nproc=1
%NoSave
%Mem=1900MB
#P OB98/GEN NMR

erre ene a

0 1
  C      796.826    -462.586      48.638
  O      798.047    -463.163      49.048
  H      796.009    -463.093      49.156
  H      796.696    -462.722      47.561
  H      796.787    -461.521      48.880
  P      799.412    -462.404      48.696
  C      799.987    -461.948      51.172
  O      799.713    -461.384      49.894
  C      799.970    -460.866      52.258
  O      798.662    -460.246      52.290
  C      800.217    -461.462      53.651
  O      800.816    -460.526      54.534
  C      798.808    -461.763      54.135
  O      798.713    -461.844      55.556
  C      798.021    -460.603      53.525
  N      793.228    -460.263      55.217
  C      794.407    -459.974      55.875
  N      794.295    -459.531      57.151
  N      795.588    -460.124      55.339
  C      795.555    -460.642      54.088
  C      794.450    -460.988      53.342
  C      793.140    -460.785      53.933
  O      792.069    -461.044      53.402
  N      794.815    -461.487      52.118
  C      796.128    -461.446      52.119
  N      796.627    -460.916      53.287
  O      799.002    -461.419      47.500
  O      800.560    -463.288      48.310
  H      797.869    -462.289      55.767
  H      799.790    -461.172      46.980
  H      792.340    -460.099      55.666
  H      796.766    -461.774      51.305
  H      798.055    -459.727      54.185
  H      798.508    -462.737      53.737
  H      793.421    -459.592      57.652
  H      800.822    -462.363      53.615
  H      795.125    -459.614      57.736
  H      800.690    -460.075      52.011
  H      800.973    -462.409      51.107
  H      799.271    -462.737      51.402
  P      802.410    -460.335      54.474
  C      802.333    -457.818      53.643
  O      802.779    -459.149      53.468
  O      802.926    -461.645      53.727
  O      803.065    -460.160      55.807
  H      803.475    -462.188      54.317
  H      802.707    -457.209      52.847
  H      802.691    -457.442      54.578
  H      801.263    -457.797      53.636

 6  7  8  9  10  11  12  13  14  15  26  29  33  34 0
 6-311+G(2d,p)
 ****
 36  38  39  40  41 0
 6-311+G(2d,p)
 ****
 1  2  3  4  5  16  17  18  19  20  21  22  23  24  25 0
 3-21G
 ****
 27  28  30  31  32  35  37  42  43  44  45  46  47 0
 3-21G
 ****
 48  49 0
 3-21G
 ****


