%nproc=1
%NoSave
%Mem=1900MB
#P OB98/GEN NMR

erre ene a

0 1
  C      -30.257     -38.152    -124.287
  O      -29.528     -38.625    -123.154
  P      -29.732     -40.141    -122.673
  C      -30.992     -41.391    -120.814
  O      -30.875     -40.178    -121.545
  C      -31.930     -41.257    -119.606
  O      -31.310     -40.472    -118.554
  C      -33.281     -40.602    -119.927
  O      -34.264     -41.244    -119.105
  C      -33.060     -39.170    -119.480
  O      -34.278     -38.467    -119.286
  C      -32.216     -39.400    -118.224
  N      -31.505     -38.204    -117.801
  C      -32.270     -37.142    -117.320
  O      -33.500     -37.200    -117.362
  N      -31.622     -36.032    -116.833
  C      -30.336     -35.937    -116.962
  N      -29.729     -34.833    -116.450
  C      -29.514     -36.963    -117.630
  C      -30.154     -38.068    -117.998
  O      -28.482     -40.878    -122.326
  O      -30.463     -40.817    -123.933
  H      -34.076     -37.552    -118.998
  H      -30.163     -41.743    -124.011
  H      -28.457     -36.802    -117.787
  H      -29.639     -38.881    -118.489
  H      -32.842     -39.747    -117.392
  H      -32.478     -38.634    -120.240
  H      -33.574     -40.698    -120.977
  H      -32.101     -42.263    -119.202
  H      -30.307     -34.125    -116.016
  H      -30.001     -41.694    -120.466
  H      -28.724     -34.708    -116.464
  H      -31.332     -42.183    -121.491
  P      -35.495     -41.993    -119.809
  C      -37.836     -41.317    -120.713
  O      -36.620     -40.899    -120.132
  O      -36.147     -42.782    -118.570
  O      -35.145     -42.953    -120.899
  H      -36.635     -43.556    -118.911
  H      -38.571     -40.513    -120.602
  H      -38.226     -42.212    -120.222
  H      -37.690     -41.515    -121.778
  H      -30.006     -37.128    -124.471
  H      -31.307     -38.233    -124.095
  H      -30.005     -38.741    -125.144

 3  4  5  6  7  8  9  10  11  12  13  23  27  28  29  30  32 0
 6-311+G(2d,p)
 ****
 34  35 0
 6-311+G(2d,p)
 ****
 1  2  14  15  16  17  18  19  20  21  22  24  25  26 0
 3-21G
 ****
 31  33  36  37  38  39  40  41  42  43  44  45  46 0
 3-21G
 ****


