%nproc=1
%NoSave
%Mem=1900MB
#P OB98/GEN NMR

erre ene a

0 1
  C      318.939     453.056      27.802
  O      319.456     454.017      28.733
  P      318.484     454.964      29.598
  C      317.245     456.378      27.847
  O      317.143     455.301      28.769
  C      316.207     457.481      28.081
  O      314.854     456.942      28.027
  C      316.323     458.206      29.431
  O      315.870     459.546      29.197
  C      315.338     457.452      30.295
  O      314.936     458.165      31.460
  C      314.219     457.209      29.291
  N      309.797     455.923      31.551
  C      310.290     457.114      31.149
  N      311.460     457.371      30.527
  C      312.127     456.239      30.273
  C      311.750     454.947      30.608
  C      310.525     454.805      31.289
  N      310.041     453.599      31.739
  N      312.713     454.032      30.215
  C      313.655     454.765      29.662
  N      313.351     456.103      29.669
  O      319.160     456.164      30.176
  O      317.957     454.015      30.776
  H      314.409     458.936      31.174
  H      318.014     454.496      31.625
  H      309.668     457.976      31.374
  H      314.589     454.386      29.263
  H      313.590     458.097      29.169
  H      315.799     456.509      30.629
  H      317.341     458.204      29.836
  H      316.286     458.200      27.258
  H      317.126     455.982      26.830
  H      309.203     453.612      32.302
  H      310.625     452.780      31.673
  H      318.254     456.805      27.919
  P      316.876     460.792      29.186
  C      316.898     461.048      31.730
  O      317.672     460.756      30.576
  O      316.242     462.106      28.854
  O      317.996     460.397      28.108
  H      318.466     461.192      27.814
  H      316.720     462.127      31.795
  H      317.458     460.723      32.624
  H      315.946     460.520      31.705
  H      319.751     452.537      27.338
  H      318.363     453.559      27.054
  H      318.318     452.356      28.320

 3  4  5  6  7  8  9  10  11  12  22  25  29  30  31  32 0
 6-311+G(2d,p)
 ****
 33  36  37 0
 6-311+G(2d,p)
 ****
 1  2  13  14  15  16  17  18  19  20  21  23  24  26 0
 3-21G
 ****
 27  28  34  35  38  39  40  41  42  43  44  45  46  47  48 0
 3-21G
 ****


