%nproc=1
%NoSave
%Mem=1900MB
#P OB98/GEN NMR

erre ene a

0 1
  C      -46.450     276.512    -450.920
  O      -47.521     277.201    -450.299
  P      -47.904     276.908    -448.769
  C      -46.949     279.146    -447.932
  O      -46.851     277.727    -447.870
  C      -46.518     279.774    -446.612
  O      -47.307     279.208    -445.541
  C      -45.048     279.530    -446.277
  O      -44.518     280.687    -445.618
  C      -45.077     278.385    -445.273
  O      -43.921     278.402    -444.424
  C      -46.410     278.641    -444.565
  N      -46.945     275.635    -440.439
  C      -46.305     276.810    -440.611
  N      -46.184     277.542    -441.743
  C      -46.861     276.969    -442.752
  C      -47.562     275.770    -442.719
  C      -47.592     275.090    -441.493
  N      -48.261     273.897    -441.309
  N      -48.102     275.494    -443.961
  C      -47.747     276.506    -444.720
  N      -47.004     277.432    -444.032
  O      -48.026     275.467    -448.412
  O      -49.271     277.701    -448.534
  H      -44.053     277.712    -443.742
  H      -49.866     277.184    -447.960
  H      -45.824     277.217    -439.727
  H      -47.993     276.615    -445.768
  H      -46.301     279.366    -443.746
  H      -45.083     277.430    -445.811
  H      -44.440     279.288    -447.158
  H      -46.728     280.850    -446.647
  H      -47.993     279.414    -448.131
  H      -48.328     273.543    -440.374
  H      -48.882     273.581    -442.043
  H      -46.336     279.518    -448.761
  P      -42.918     280.845    -445.656
  C      -42.823     282.727    -447.450
  O      -42.598     281.375    -447.132
  O      -42.221     279.606    -445.205
  O      -42.713     282.112    -444.696
  H      -43.514     282.677    -444.668
  H      -42.581     282.890    -448.504
  H      -42.179     283.373    -446.839
  H      -43.873     282.994    -447.282
  H      -46.352     276.843    -451.933
  H      -46.647     275.460    -450.906
  H      -45.542     276.712    -450.390

 3  4  5  6  7  8  9  10  11  12  22  25  29  30  31  32 0
 6-311+G(2d,p)
 ****
 33  36  37 0
 6-311+G(2d,p)
 ****
 1  2  13  14  15  16  17  18  19  20  21  23  24  26 0
 3-21G
 ****
 27  28  34  35  38  39  40  41  42  43  44  45  46  47  48 0
 3-21G
 ****


