%nproc=1
%NoSave
%Mem=1900MB
#P OB98/GEN NMR

erre ene a

0 1
  C      240.674     401.292      87.212
  O      240.553     402.659      87.627
  P      241.675     403.755      87.268
  C      243.244     403.707      89.301
  O      243.087     403.355      87.934
  C      244.703     403.947      89.704
  O      245.426     402.686      89.813
  C      245.511     404.819      88.732
  O      246.473     405.517      89.534
  C      246.194     403.791      87.858
  O      247.318     404.299      87.149
  C      246.532     402.726      88.892
  N      249.634     398.642      88.780
  C      249.570     399.703      89.610
  N      248.698     400.733      89.596
  C      247.783     400.572      88.631
  C      247.706     399.537      87.711
  C      248.696     398.537      87.799
  N      248.788     397.478      86.925
  N      246.644     399.727      86.840
  C      246.105     400.864      87.225
  N      246.750     401.414      88.303
  O      241.254     405.164      87.532
  O      241.938     403.548      85.701
  H      247.033     405.098      86.663
  H      241.956     404.421      85.259
  H      250.339     399.738      90.382
  H      245.260     401.348      86.748
  H      247.430     402.993      89.459
  H      245.471     403.420      87.111
  H      244.890     405.524      88.168
  H      244.706     404.394      90.706
  H      242.825     402.905      89.923
  H      249.587     396.869      87.012
  H      248.183     397.455      86.119
  H      242.658     404.614      89.496
  P      246.177     406.966      90.146
  C      247.652     408.324      88.562
  O      246.319     408.013      88.944
  O      246.964     407.301      91.374
  O      244.601     406.962      90.447
  H      244.386     407.662      91.084
  H      248.100     409.010      89.287
  H      247.630     408.813      87.572
  H      248.257     407.422      88.489
  H      239.824     400.739      87.554
  H      241.565     400.870      87.628
  H      240.723     401.246      86.144

 3  4  5  6  7  8  9  10  11  12  22  25  29  30  31  32 0
 6-311+G(2d,p)
 ****
 33  36  37 0
 6-311+G(2d,p)
 ****
 1  2  13  14  15  16  17  18  19  20  21  23  24  26 0
 3-21G
 ****
 27  28  34  35  38  39  40  41  42  43  44  45  46  47  48 0
 3-21G
 ****


