%nproc=1
%NoSave
%Mem=1900MB
#P OB98/GEN NMR

erre ene a

0 1
  C     1433.362    -890.870    -316.050
  O     1434.421    -891.850    -316.082
  P     1435.302    -892.040    -314.765
  C     1435.245    -894.610    -314.315
  O     1434.750    -893.330    -313.972
  C     1434.262    -895.340    -315.255
  O     1434.103    -894.640    -316.500
  C     1434.699    -896.750    -315.615
  O     1434.348    -897.660    -314.611
  C     1433.851    -896.980    -316.879
  O     1432.523    -897.340    -316.502
  C     1433.874    -895.600    -317.544
  N     1435.789    -897.590    -321.876
  C     1434.758    -897.980    -321.080
  N     1434.326    -897.410    -319.935
  C     1435.051    -896.320    -319.651
  C     1436.129    -895.790    -320.351
  C     1436.495    -896.460    -321.527
  N     1437.535    -896.070    -322.337
  N     1436.630    -894.650    -319.746
  C     1435.868    -894.480    -318.678
  N     1434.908    -895.460    -318.560
  O     1434.862    -890.810    -313.830
  O     1436.779    -892.030    -315.011
  H     1432.199    -896.650    -315.875
  H     1435.613    -890.500    -313.314
  H     1434.233    -898.850    -321.405
  H     1435.971    -893.700    -317.967
  H     1432.919    -895.370    -318.027
  H     1434.256    -897.810    -317.478
  H     1435.781    -896.780    -315.876
  H     1433.281    -895.360    -314.755
  H     1435.390    -895.210    -313.408
  H     1437.727    -896.580    -323.166
  H     1438.026    -895.230    -322.081
  H     1436.233    -894.490    -314.779
  P     1435.549    -898.510    -313.944
  C     1435.002    -898.200    -311.427
  O     1435.814    -897.840    -312.515
  O     1436.829    -898.090    -314.808
  O     1435.337    -900.000    -313.935
  H     1437.478    -898.810    -314.850
  H     1435.489    -897.890    -310.490
  H     1434.857    -899.290    -311.394
  H     1434.026    -897.720    -311.486
  H     1432.862    -890.854    -316.996
  H     1433.776    -889.904    -315.849
  H     1432.663    -891.125    -315.281

 3  4  5  6  7  8  9  10  11  12  22  25  29  30  31  32 0
 6-311+G(2d,p)
 ****
 33  36  37 0
 6-311+G(2d,p)
 ****
 1  2  13  14  15  16  17  18  19  20  21  23  24  26 0
 3-21G
 ****
 27  28  34  35  38  39  40  41  42  43  44  45  46  47  48 0
 3-21G
 ****


