%nproc=1
%NoSave
%Mem=1900MB
#P OB98/GEN NMR

erre ene a

0 1
  C      641.644     937.440     561.998
  O      642.604     936.487     562.400
  H      640.635     937.029     562.090
  H      641.727     938.316     562.643
  H      641.827     937.745     560.963
  P      642.569     935.074     561.637
  C      640.787     933.943     563.142
  O      642.144     933.975     562.730
  C      640.544     932.750     564.056
  O      640.876     931.522     563.376
  C      641.376     932.743     565.334
  O      640.844     933.619     566.317
  C      641.249     931.286     565.746
  O      639.991     931.083     566.415
  C      641.253     930.560     564.394
  N      644.037     926.245     564.183
  C      642.766     926.483     564.583
  N      642.096     927.651     564.624
  C      642.865     928.653     564.170
  C      644.173     928.570     563.731
  C      644.771     927.299     563.749
  N      646.073     927.068     563.355
  N      644.635     929.806     563.332
  C      643.623     930.628     563.529
  N      642.534     929.977     564.043
  O      644.117     934.754     561.373
  O      641.783     935.052     560.371
  H      639.897     930.120     566.543
  H      644.206     934.301     560.515
  H      642.204     925.606     564.916
  H      643.636     931.687     563.308
  H      640.495     929.760     564.364
  H      642.037     930.960     566.432
  H      642.429     932.969     565.122
  H      639.472     932.720     564.295
  H      640.143     933.859     562.260
  H      646.368     926.122     563.206
  H      646.608     927.861     563.023
  H      640.551     934.878     563.662
  P      641.778     934.829     566.816
  C      643.224     933.837     568.731
  O      642.047     934.554     568.374
  O      640.779     936.076     566.824
  O      642.980     935.092     565.974
  H      641.286     936.909     566.723
  H      643.268     933.731     569.795
  H      644.085     934.373     568.390
  H      643.203     932.868     568.277

 6  7  8  9  10  11  12  13  14  15  25  28  32  33  34  35 0
 6-311+G(2d,p)
 ****
 36  39  40 0
 6-311+G(2d,p)
 ****
 1  2  3  4  5  16  17  18  19  20  21  22  23  24 0
 3-21G
 ****
 26  27  29  30  31  37  38  41  42  43  44  45  46  47  48 0
 3-21G
 ****


