%nproc=1
%NoSave
%Mem=1900MB
#P OB98/GEN NMR

erre ene a

0 1
  C      192.409      42.658     -94.494
  O      192.628      41.287     -94.166
  P      192.605      40.087     -95.219
  C      195.010      40.005     -96.260
  O      194.083      39.484     -95.320
  C      195.901      38.924     -96.894
  O      196.768      39.531     -97.889
  C      196.821      38.300     -95.842
  O      196.346      37.258     -95.012
  C      198.096      37.960     -96.600
  O      198.111      36.610     -97.070
  C      198.077      38.935     -97.780
  N      202.358      40.987     -99.687
  C      201.681      39.854    -100.086
  N      202.237      39.143    -101.090
  N      200.569      39.443     -99.539
  C      200.170      40.196     -98.490
  C      200.767      41.329     -97.986
  C      201.968      41.811     -98.637
  O      202.600      42.814     -98.329
  N      200.087      41.815     -96.896
  C      199.098      40.963     -96.726
  N      199.099      39.963     -97.675
  O      191.900      40.368     -96.503
  O      191.777      38.934     -94.450
  H      199.011      36.413     -97.388
  H      191.288      38.437     -95.137
  H      203.200      41.271    -100.159
  H      198.351      41.024     -95.943
  H      198.260      38.414     -98.727
  H      198.972      38.072     -95.948
  H      203.148      39.338    -101.474
  H      197.101      39.105     -95.148
  H      201.865      38.202    -101.241
  H      195.298      38.189     -97.433
  H      195.620      40.742     -95.730
  H      194.480      40.550     -97.043
  P      196.027      37.364     -93.447
  C      193.508      37.767     -93.213
  O      194.550      36.805     -93.204
  O      195.854      38.935     -93.194
  O      197.076      36.793     -92.547
  H      195.914      39.136     -92.242
  H      192.622      37.337     -92.743
  H      193.267      38.036     -94.246
  H      193.803      38.668     -92.663
  H      192.479      43.252     -93.607
  H      191.435      42.771     -94.923
  H      193.148      42.979     -95.198

 3  4  5  6  7  8  9  10  11  12  23  26  30  31 0
 6-311+G(2d,p)
 ****
 33  35  36  37  38 0
 6-311+G(2d,p)
 ****
 1  2  13  14  15  16  17  18  19  20  21  22  24  25 0
 3-21G
 ****
 27  28  29  32  34  39  40  41  42  43  44  45  46  47  48  49 0
 3-21G
 ****


