%nproc=1
%NoSave
%Mem=1900MB
#P OB98/GEN NMR

erre ene a

0 1
  C       28.872      -2.057     -61.852
  O       29.626      -1.673     -62.989
  P       29.546      -2.610     -64.291
  C       30.518      -4.987     -64.868
  O       30.366      -3.938     -63.924
  C       31.972      -5.467     -64.892
  O       32.789      -4.522     -65.617
  C       32.621      -5.597     -63.521
  O       32.199      -6.772     -62.846
  C       34.100      -5.574     -63.890
  O       34.520      -6.869     -64.351
  C       34.119      -4.562     -65.054
  N       34.565      -3.228     -64.654
  C       35.790      -2.810     -65.167
  O       36.477      -3.501     -65.917
  N       36.210      -1.568     -64.769
  C       35.573      -0.750     -63.881
  O       36.015       0.335     -63.525
  C       34.299      -1.260     -63.347
  C       33.862      -2.456     -63.751
  O       30.500      -1.804     -65.291
  O       28.152      -2.822     -64.775
  H       31.170      -1.285     -64.813
  H       35.409      -6.749     -64.739
  H       37.084      -1.232     -65.147
  H       33.771      -0.644     -62.632
  H       32.932      -2.851     -63.361
  H       34.778      -4.920     -65.856
  H       34.742      -5.300     -63.044
  H       32.382      -4.717     -62.910
  H       32.006      -6.426     -65.426
  H       30.235      -4.620     -65.857
  H       29.848      -5.810     -64.595
  P       31.748      -6.595     -61.308
  C       32.904      -5.300     -59.355
  O       33.044      -6.083     -60.519
  O       31.584      -8.123     -60.857
  O       30.519      -5.762     -61.136
  H       32.297      -8.695     -61.189
  H       33.833      -5.356     -58.780
  H       32.081      -5.657     -58.729
  H       32.723      -4.259     -59.634
  H       29.022      -1.345     -61.068
  H       29.192      -3.023     -61.522
  H       27.834      -2.093     -62.108

 3  4  5  6  7  8  9  10  11  12  13  24  28  29  30  31  32 0
 6-311+G(2d,p)
 ****
 33  34 0
 6-311+G(2d,p)
 ****
 1  2  14  15  16  17  18  19  20  21  22  23  25  26  27 0
 3-21G
 ****
 35  36  37  38  39  40  41  42  43  44  45 0
 3-21G
 ****


