%nproc=1
%NoSave
%Mem=1900MB
#P OB98/GEN NMR

erre ene a

0 1
  C      -89.412     -18.408     620.219
  O      -88.493     -17.813     619.298
  P      -87.029     -17.475     619.857
  C      -87.656     -15.001     620.346
  O      -87.154     -16.229     620.858
  C      -88.425     -14.250     621.433
  O      -87.561     -13.871     622.527
  C      -89.043     -12.947     620.943
  O      -90.195     -13.195     620.162
  C      -89.321     -12.248     622.272
  O      -90.522     -12.768     622.873
  C      -88.102     -12.662     623.114
  N      -86.570      -8.334     625.381
  C      -87.660      -9.111     625.566
  N      -87.995     -10.248     624.917
  C      -87.059     -10.575     624.007
  C      -85.905      -9.878     623.713
  C      -85.664      -8.706     624.450
  N      -84.559      -7.902     624.249
  N      -85.192     -10.520     622.713
  C      -85.927     -11.563     622.394
  N      -87.064     -11.646     623.153
  O      -86.279     -16.868     618.582
  O      -86.308     -18.667     620.404
  H      -90.492     -12.549     623.825
  H      -85.612     -17.507     618.250
  H      -88.356      -8.777     626.330
  H      -85.680     -12.284     621.622
  H      -88.371     -12.886     624.150
  H      -89.452     -11.166     622.172
  H      -88.309     -12.375     620.365
  H      -89.207     -14.918     621.816
  H      -88.314     -15.191     619.493
  H      -84.505      -7.038     624.764
  H      -83.921      -8.124     623.500
  H      -86.815     -14.407     619.968
  P      -90.075     -12.992     618.572
  C      -92.382     -11.896     618.275
  O      -90.981     -11.699     618.280
  O      -90.987     -14.183     618.022
  O      -88.681     -12.942     618.048
  H      -91.827     -14.241     618.504
  H      -92.873     -10.938     618.108
  H      -92.705     -12.306     619.247
  H      -92.661     -12.590     617.479
  H      -90.346     -18.583     619.728
  H      -89.563     -17.749     621.048
  H      -89.014     -19.337     620.570

 3  4  5  6  7  8  9  10  11  12  22  25  29  30  31  32 0
 6-311+G(2d,p)
 ****
 33  36  37 0
 6-311+G(2d,p)
 ****
 1  2  13  14  15  16  17  18  19  20  21  23  24  26 0
 3-21G
 ****
 27  28  34  35  38  39  40  41  42  43  44  45  46  47  48 0
 3-21G
 ****


