%nproc=1
%NoSave
%Mem=1900MB
#P OB98/GEN NMR

erre ene a

0 1
  C       72.192     143.889     264.245
  O       72.242     145.291     264.425
  H       73.078     143.419     264.680
  H       71.303     143.499     264.752
  H       72.128     143.646     263.178
  P       73.499     146.055     263.784
  C       72.901     145.453     261.323
  O       73.802     145.284     262.408
  C       73.564     144.972     260.038
  O       72.660     145.139     258.920
  C       74.823     145.746     259.669
  O       75.969     145.285     260.367
  C       74.920     145.438     258.184
  O       75.428     144.103     257.995
  C       73.446     145.508     257.756
  N       71.261     148.159     253.961
  C       71.475     146.839     254.128
  N       72.044     146.210     255.180
  C       72.399     147.092     256.127
  C       72.241     148.469     256.095
  C       71.641     149.009     254.942
  N       71.452     150.358     254.754
  N       72.748     149.042     257.246
  C       73.192     148.027     257.959
  N       73.033     146.831     257.311
  O       74.726     145.623     264.717
  O       73.362     147.536     263.648
  H       75.287     143.874     257.059
  H       75.494     146.202     264.557
  H       71.148     146.200     253.312
  H       73.642     148.106     258.940
  H       73.203     144.804     256.951
  H       75.591     146.116     257.654
  H       74.686     146.826     259.802
  H       73.772     143.900     260.140
  H       72.647     146.517     261.233
  H       71.154     150.657     253.837
  H       71.864     151.005     255.410
  H       71.988     144.883     261.518
  P       77.408     145.622     259.730
  C       77.424     147.662     261.337
  O       77.679     147.175     260.026
  O       77.122     145.590     258.159
  O       78.497     144.682     260.131
  H       77.906     145.280     257.667
  H       77.650     148.707     261.380
  H       78.037     147.136     262.039
  H       76.393     147.510     261.580

 6  7  8  9  10  11  12  13  14  15  25  28  32  33  34  35 0
 6-311+G(2d,p)
 ****
 36  39  40 0
 6-311+G(2d,p)
 ****
 1  2  3  4  5  16  17  18  19  20  21  22  23  24 0
 3-21G
 ****
 26  27  29  30  31  37  38  41  42  43  44  45  46  47 0
 3-21G
 ****
 48 0
 3-21G
 ****


