%nproc=1
%NoSave
%Mem=1900MB
#P OB98/GEN NMR

erre ene a

0 1
  C      301.594     563.790    -625.962
  O      302.901     563.352    -625.560
  P      303.734     562.491    -626.638
  C      305.786     563.984    -626.047
  O      305.289     562.672    -626.298
  C      306.956     563.939    -625.072
  O      306.500     563.758    -623.717
  C      307.936     562.795    -625.321
  O      308.831     563.096    -626.379
  C      308.668     562.743    -623.990
  O      309.720     563.736    -623.972
  C      307.563     563.115    -622.980
  N      308.559     559.270    -619.839
  C      309.387     560.250    -620.317
  N      310.673     560.233    -619.851
  N      309.008     561.189    -621.146
  C      307.702     561.102    -621.489
  C      306.780     560.159    -621.089
  C      307.217     559.127    -620.185
  O      306.530     558.196    -619.757
  N      305.549     560.405    -621.631
  C      305.711     561.500    -622.348
  N      307.011     561.959    -622.305
  O      303.557     563.339    -627.989
  O      303.257     561.085    -626.790
  H      310.265     563.593    -624.774
  H      303.629     562.754    -628.769
  H      308.902     558.570    -619.191
  H      304.940     562.009    -622.908
  H      307.922     563.826    -622.232
  H      309.146     561.777    -623.802
  H      311.008     559.592    -619.160
  H      307.398     561.853    -625.481
  H      311.279     560.977    -620.169
  H      307.488     564.901    -625.137
  H      304.997     564.605    -625.638
  H      306.078     564.434    -627.005
  P      308.624     562.282    -627.760
  C      310.492     563.754    -628.821
  O      310.004     562.458    -628.549
  O      307.600     563.216    -628.564
  O      308.123     560.897    -627.595
  H      307.070     562.677    -629.175
  H      310.378     564.404    -627.943
  H      309.937     564.182    -629.660
  H      311.552     563.701    -629.074
  H      301.145     564.348    -625.167
  H      300.987     562.939    -626.188
  H      301.677     564.410    -626.830

 3  4  5  6  7  8  9  10  11  12  23  26  30  31  33  0
 6-311+G(2d,p)
 ****
 35  36  37  38 0
 6-311+G(2d,p)
 ****
 1  2  13  14  15  16  17  18  19  20  21  22  24  25  27  28  29 0
 3-21G
 ****
 32  34  39  40  41  42  43  44  45  46  47  48  49 0
 3-21G
 ****


