%nproc=1
%NoSave
%Mem=1900MB
#P OB98/GEN NMR

erre ene a

0 1
  C     -875.180    -155.893    -266.115
  O     -874.377    -154.759    -266.472
  P     -873.520    -154.720    -267.821
  C     -873.913    -152.492    -269.057
  O     -874.312    -153.855    -268.918
  C     -875.013    -151.525    -268.599
  O     -875.269    -151.683    -267.191
  C     -874.686    -150.053    -268.812
  O     -874.890    -149.683    -270.158
  C     -875.639    -149.395    -267.813
  O     -876.961    -149.291    -268.375
  C     -875.625    -150.393    -266.649
  N     -875.194    -149.498    -261.637
  C     -876.236    -149.890    -262.393
  N     -876.273    -150.096    -263.729
  C     -875.069    -149.893    -264.275
  C     -873.902    -149.490    -263.624
  C     -874.000    -149.284    -262.237
  N     -872.930    -148.872    -261.470
  N     -872.865    -149.352    -264.526
  C     -873.384    -149.689    -265.692
  N     -874.705    -150.022    -265.587
  O     -873.072    -156.057    -268.314
  O     -872.255    -153.798    -267.472
  H     -876.885    -148.778    -269.203
  H     -871.495    -154.057    -268.030
  H     -877.165    -150.045    -261.861
  H     -872.841    -149.712    -266.622
  H     -876.616    -150.501    -266.203
  H     -875.326    -148.382    -267.533
  H     -873.654    -149.850    -268.511
  H     -875.938    -151.795    -269.132
  H     -873.679    -152.308    -270.111
  H     -873.088    -148.715    -260.487
  H     -872.050    -148.668    -261.922
  H     -873.002    -152.331    -268.469
  P     -873.677    -149.788    -271.210
  C     -874.871    -150.980    -273.139
  O     -873.931    -151.102    -272.088
  O     -872.306    -149.661    -270.628
  O     -873.977    -148.606    -272.248
  H     -873.136    -148.278    -272.619
  H     -875.887    -151.065    -272.727
  H     -874.716    -151.794    -273.853
  H     -874.768    -150.025    -273.658
  H     -875.665    -155.706    -265.180
  H     -874.557    -156.758    -266.027
  H     -875.918    -156.060    -266.872

 3  4  5  6  7  8  9  10  11  12  22  25  29  30  31  32 0
 6-311+G(2d,p)
 ****
 33  36  37 0
 6-311+G(2d,p)
 ****
 1  2  13  14  15  16  17  18  19  20  21  23  24  26 0
 3-21G
 ****
 27  28  34  35  38  39  40  41  42  43  44  45  46  47  48 0
 3-21G
 ****


