%nproc=1
%NoSave
%Mem=1900MB
#P OB98/GEN NMR

erre ene a

0 1
  C      197.996     -21.762     -16.231
  O      196.774     -21.903     -16.927
  H      198.072     -22.560     -15.490
  H      198.024     -20.800     -15.712
  H      198.845     -21.839     -16.916
  P      196.503     -20.980     -18.208
  C      195.513     -19.026     -16.848
  O      196.561     -19.459     -17.705
  C      195.822     -17.631     -16.312
  O      197.083     -17.635     -15.610
  C      195.955     -16.565     -17.395
  O      194.684     -16.184     -17.887
  C      196.700     -15.480     -16.632
  O      195.799     -14.722     -15.811
  C      197.666     -16.321     -15.763
  N      199.013     -16.407     -16.321
  C      199.721     -15.213     -16.419
  O      199.247     -14.123     -16.099
  N      200.994     -15.311     -16.917
  C      201.581     -16.447     -17.394
  O      202.707     -16.472     -17.882
  C      200.774     -17.672     -17.298
  C      199.549     -17.597     -16.772
  O      195.296     -21.327     -19.016
  O      197.847     -21.125     -19.067
  H      195.461     -13.993     -16.368
  H      197.706     -21.759     -19.795
  H      201.516     -14.455     -17.008
  H      201.206     -18.592     -17.670
  H      198.937     -18.490     -16.698
  H      197.740     -15.892     -14.756
  H      197.198     -14.768     -17.292
  H      196.596     -16.927     -18.207
  H      195.038     -17.360     -15.593
  H      195.430     -19.728     -16.010
  H      194.574     -19.027     -17.409
  P      194.347     -16.285     -19.446
  C      194.543     -13.732     -19.536
  O      194.917     -14.958     -20.151
  O      192.926     -16.600     -19.773
  O      195.331     -17.428     -19.983
  H      194.823     -18.247     -20.156
  H      194.971     -12.915     -20.079
  H      194.899     -13.716     -18.527
  H      193.477     -13.642     -19.539

 6  7  8  9  10  11  12  13  14  15  16  26  31  32  33  34  35 0
 6-311+G(2d,p)
 ****
 36  37 0
 6-311+G(2d,p)
 ****
 1  2  3  4  5  17  18  19  20  21  22  23  24  25 0
 3-21G
 ****
 27  28  29  30  38  39  40  41  42  43  44  45 0
 3-21G
 ****


