%nproc=1
%NoSave
%Mem=1900MB
#P OB98/GEN NMR

erre ene a

0 1
  C       43.834    -129.371    -122.569
  O       45.210    -129.571    -122.819
  P       45.769    -130.998    -123.277
  C       47.088    -130.757    -125.460
  O       45.820    -131.023    -124.878
  C       47.659    -131.999    -126.142
  O       48.045    -132.967    -125.132
  C       46.687    -132.687    -127.108
  O       47.455    -133.152    -128.223
  C       46.168    -133.857    -126.294
  O       45.654    -134.900    -127.111
  C       47.416    -134.216    -125.482
  N       47.103    -135.003    -124.299
  C       46.810    -136.353    -124.498
  O       46.695    -136.800    -125.641
  N       46.641    -137.155    -123.398
  C       46.579    -136.618    -122.219
  N       46.478    -137.455    -121.151
  C       46.635    -135.159    -121.999
  C       46.939    -134.422    -123.064
  O       45.085    -132.173    -122.661
  O       47.319    -130.962    -122.869
  H       47.524    -131.747    -122.325
  H       45.606    -135.722    -126.580
  H       46.454    -134.750    -121.017
  H       47.032    -133.345    -122.999
  H       48.130    -134.775    -126.100
  H       45.364    -133.516    -125.631
  H       45.898    -132.019    -127.465
  H       48.573    -131.705    -126.674
  H       46.484    -138.449    -121.338
  H       47.768    -130.443    -124.665
  H       46.741    -137.165    -120.210
  H       47.004    -129.929    -126.174
  P       46.749    -133.203    -129.665
  C       47.588    -130.820    -130.252
  O       46.487    -131.695    -130.138
  O       45.268    -133.694    -129.281
  O       47.347    -134.135    -130.668
  H       44.871    -134.138    -130.053
  H       47.218    -129.826    -130.518
  H       48.265    -131.161    -131.040
  H       48.127    -130.751    -129.304
  H       43.669    -128.355    -122.276
  H       43.515    -130.025    -121.784
  H       43.276    -129.582    -123.457

 3  4  5  6  7  8  9  10  11  12  13  24  27  28  29  30  32 0
 6-311+G(2d,p)
 ****
 34  35 0
 6-311+G(2d,p)
 ****
 1  2  14  15  16  17  18  19  20  21  22  23  25  26 0
 3-21G
 ****
 31  33  36  37  38  39  40  41  42  43  44  45  46 0
 3-21G
 ****


