%nproc=1
%NoSave
%Mem=1900MB
#P OB98/GEN NMR

erre ene a

0 1
  C       75.159    -236.531     225.711
  O       75.080    -237.828     226.263
  H       75.495    -235.838     226.490
  H       74.171    -236.212     225.368
  H       75.871    -236.497     224.881
  P       74.884    -239.081     225.281
  C       77.144    -238.981     224.033
  O       76.356    -239.662     225.001
  C       78.427    -239.769     223.754
  O       79.350    -239.549     224.866
  C       78.199    -241.290     223.625
  O       79.127    -241.811     222.665
  C       78.570    -241.767     225.016
  O       78.873    -243.141     225.036
  C       79.747    -240.851     225.340
  N       80.051    -240.855     226.770
  C       81.051    -241.720     227.198
  O       81.671    -242.475     226.445
  N       81.279    -241.759     228.548
  C       80.541    -241.111     229.499
  O       80.736    -241.238     230.698
  C       79.459    -240.250     228.991
  C       79.269    -240.156     227.670
  O       74.070    -238.829     224.055
  O       74.245    -240.218     226.212
  H       79.689    -243.308     224.524
  H       73.790    -240.887     225.667
  H       82.008    -242.374     228.872
  H       78.844    -239.731     229.717
  H       78.471    -239.543     227.264
  H       80.643    -241.151     224.780
  H       77.732    -241.600     225.705
  H       77.179    -241.548     223.336
  H       78.910    -239.362     222.856
  H       77.393    -237.988     224.430
  H       76.567    -238.863     223.111
  P       78.665    -242.270     221.198
  C       79.013    -239.947     220.154
  O       79.337    -241.333     220.073
  O       77.183    -242.433     221.047
  O       79.388    -243.686     220.978
  H       78.747    -244.323     220.610
  H       79.508    -239.418     219.366
  H       79.333    -239.560     221.099
  H       77.955    -239.822     220.058

 6  7  8  9  10  11  12  13  14  15  16  26  31  32  33  34  35 0
 6-311+G(2d,p)
 ****
 36  37 0
 6-311+G(2d,p)
 ****
 1  2  3  4  5  17  18  19  20  21  22  23  24  25 0
 3-21G
 ****
 27  28  29  30  38  39  40  41  42  43  44  45 0
 3-21G
 ****


