%nproc=1
%NoSave
%Mem=1900MB
#P OB98/GEN NMR

erre ene a

0 1
  C      518.627    -195.800    -318.461
  O      518.541    -196.792    -317.454
  P      518.093    -198.302    -317.809
  C      516.259    -198.376    -315.966
  O      516.547    -198.382    -317.363
  C      514.770    -198.223    -315.754
  O      514.343    -196.909    -316.172
  C      513.897    -199.218    -316.519
  O      513.926    -200.501    -315.935
  C      512.552    -198.499    -316.493
  O      511.901    -198.707    -315.235
  C      512.967    -197.023    -316.628
  N      512.824    -196.520    -317.996
  C      511.573    -195.975    -318.337
  O      510.659    -195.939    -317.520
  N      511.404    -195.460    -319.609
  C      512.379    -195.508    -320.453
  N      512.175    -194.925    -321.672
  C      513.699    -196.123    -320.162
  C      513.849    -196.601    -318.928
  O      518.961    -199.358    -317.229
  O      517.999    -198.326    -319.402
  H      511.877    -199.671    -315.082
  H      518.851    -198.557    -319.846
  H      514.468    -196.136    -320.910
  H      514.780    -197.033    -318.625
  H      512.371    -196.403    -315.962
  H      511.880    -198.837    -317.294
  H      514.257    -199.292    -317.553
  H      514.558    -198.317    -314.672
  H      511.323    -194.373    -321.769
  H      516.786    -197.523    -315.507
  H      512.949    -194.663    -322.272
  H      516.648    -199.312    -315.524
  P      513.477    -201.747    -316.818
  C      511.500    -202.477    -315.299
  O      511.903    -201.941    -316.539
  O      514.165    -202.988    -316.090
  O      513.868    -201.655    -318.263
  H      514.964    -203.262    -316.567
  H      510.425    -202.332    -315.182
  H      512.028    -201.984    -314.473
  H      511.706    -203.564    -315.298
  H      518.938    -194.874    -318.024
  H      517.669    -195.673    -318.920
  H      519.339    -196.103    -319.200

 3  4  5  6  7  8  9  10  11  12  13  23  27  28  29  30  32 0
 6-311+G(2d,p)
 ****
 34  35 0
 6-311+G(2d,p)
 ****
 1  2  14  15  16  17  18  19  20  21  22  24  25  26 0
 3-21G
 ****
 31  33  36  37  38  39  40  41  42  43  44  45  46 0
 3-21G
 ****


