%nproc=1
%NoSave
%Mem=1900MB
#P OB98/GEN NMR

erre ene a

0 1
  C      682.172     512.282      68.499
  O      682.236     513.399      67.633
  H      682.910     512.412      69.292
  H      682.408     511.369      67.949
  H      681.177     512.201      68.946
  P      681.165     513.451      66.433
  C      679.882     515.491      67.395
  O      680.673     514.985      66.337
  C      679.904     517.026      67.405
  O      681.203     517.463      67.924
  C      679.704     517.668      66.034
  O      678.973     518.888      66.210
  C      681.133     518.034      65.618
  O      681.170     519.060      64.621
  C      681.707     518.430      66.975
  N      685.709     521.471      66.529
  C      684.353     521.764      66.550
  N      684.009     523.059      66.441
  N      683.416     520.853      66.668
  C      683.908     519.602      66.813
  C      685.225     519.175      66.801
  C      686.240     520.185      66.638
  O      687.458     519.991      66.590
  N      685.300     517.811      66.943
  C      684.038     517.405      67.035
  N      683.166     518.456      66.962
  O      679.902     512.692      67.061
  O      681.612     512.841      65.151
  H      680.732     518.708      63.821
  H      679.924     511.741      66.821
  H      686.389     522.205      66.417
  H      683.724     516.386      67.154
  H      681.375     519.427      67.297
  H      681.640     517.148      65.214
  H      684.675     523.818      66.387
  H      679.198     517.041      65.294
  H      683.025     523.297      66.498
  H      679.157     517.381      68.122
  H      680.269     515.117      68.348
  H      678.848     515.140      67.268
  P      677.706     519.160      65.263
  C      676.031     519.228      67.260
  O      676.582     519.904      66.133
  O      677.099     517.696      65.077
  O      678.043     519.798      63.956
  H      676.623     517.630      64.216
  H      675.301     519.854      67.729
  H      676.811     519.004      67.958
  H      675.568     518.318      66.939

 6  7  8  9  10  11  12  13  14  15  26  29  33  34 0
 6-311+G(2d,p)
 ****
 36  38  39  40  41 0
 6-311+G(2d,p)
 ****
 1  2  3  4  5  16  17  18  19  20  21  22  23  24  25 0
 3-21G
 ****
 27  28  30  31  32  35  37  42  43  44  45  46  47 0
 3-21G
 ****
 48  49 0
 3-21G
 ****


