%nproc=1
%NoSave
%Mem=1900MB
#P OB98/GEN NMR

erre ene a

0 1
  C      101.166    -294.980      37.387
  O      102.163    -295.414      36.470
  P      103.691    -295.423      36.957
  C      104.182    -297.916      37.487
  O      103.844    -296.633      38.002
  C      105.174    -298.630      38.404
  O      105.439    -299.957      37.868
  C      106.526    -297.923      38.561
  O      106.996    -298.187      39.889
  C      107.412    -298.656      37.566
  O      108.797    -298.502      37.860
  C      106.874    -300.076      37.717
  N      110.222    -303.390      35.730
  C      110.185    -302.756      36.923
  N      109.261    -301.890      37.379
  C      108.295    -301.692      36.465
  C      108.221    -302.243      35.189
  C      109.242    -303.135      34.829
  N      109.277    -303.788      33.618
  N      107.100    -301.782      34.529
  C      106.507    -300.972      35.384
  N      107.187    -300.907      36.573
  O      103.769    -294.118      37.880
  O      104.709    -295.381      35.865
  H      109.019    -297.554      37.782
  H      104.331    -293.438      37.451
  H      111.007    -302.983      37.598
  H      105.605    -300.411      35.196
  H      107.264    -300.577      38.612
  H      107.236    -298.268      36.556
  H      106.493    -296.844      38.374
  H      104.701    -298.770      39.382
  H      104.648    -297.784      36.505
  H      109.966    -304.518      33.489
  H      108.459    -303.758      33.021
  H      103.277    -298.511      37.369
  P      107.524    -296.930      40.733
  C      105.105    -296.428      41.523
  O      106.282    -295.940      40.909
  O      108.483    -296.166      39.702
  O      108.245    -297.301      41.989
  H      109.169    -295.677      40.186
  H      104.634    -295.615      42.083
  H      105.317    -297.258      42.209
  H      104.412    -296.774      40.749
  H      100.205    -295.030      36.919
  H      101.367    -293.971      37.681
  H      101.176    -295.612      38.250

 3  4  5  6  7  8  9  10  11  12  22  25  29  30  31  32 0
 6-311+G(2d,p)
 ****
 33  36  37 0
 6-311+G(2d,p)
 ****
 1  2  13  14  15  16  17  18  19  20  21  23  24  26 0
 3-21G
 ****
 27  28  34  35  38  39  40  41  42  43  44  45  46  47  48 0
 3-21G
 ****


