%nproc=1
%NoSave
%Mem=1900MB
#P OB98/GEN NMR

erre ene a

0 1
  C     -229.542     180.742      73.796
  O     -229.623     179.377      73.421
  P     -231.038     178.689      73.100
  C     -230.136     177.479      71.003
  O     -230.674     177.342      72.311
  C     -229.936     176.101      70.378
  O     -228.849     175.423      71.038
  C     -231.138     175.172      70.498
  O     -232.149     175.522      69.567
  C     -230.478     173.817      70.275
  O     -230.264     173.590      68.873
  C     -229.122     174.003      70.987
  N     -229.097     173.414      72.322
  C     -228.700     172.076      72.406
  O     -228.380     171.445      71.400
  N     -228.638     171.486      73.643
  C     -228.965     172.161      74.702
  N     -228.819     171.547      75.907
  C     -229.442     173.555      74.652
  C     -229.479     174.114      73.444
  O     -232.020     179.571      72.408
  O     -231.546     178.138      74.509
  H     -231.143     173.428      68.477
  H     -232.069     178.798      75.026
  H     -229.718     174.072      75.559
  H     -229.799     175.140      73.324
  H     -228.317     173.560      70.391
  H     -231.063     172.977      70.665
  H     -231.554     175.216      71.512
  H     -229.664     176.239      69.323
  H     -228.326     170.661      75.907
  H     -229.166     177.983      71.075
  H     -228.773     172.077      76.767
  H     -230.809     178.093      70.397
  P     -233.540     174.729      69.649
  C     -234.934     176.835      69.064
  O     -234.555     175.522      68.691
  O     -234.056     175.045      71.130
  O     -233.430     173.263      69.390
  H     -233.880     174.288      71.719
  H     -235.421     177.311      68.210
  H     -234.059     177.426      69.345
  H     -235.643     176.795      69.895
  H     -228.519     181.005      73.965
  H     -230.104     180.899      74.693
  H     -229.942     181.351      73.013

 3  4  5  6  7  8  9  10  11  12  13  23  27  28  29  30  32 0
 6-311+G(2d,p)
 ****
 34  35 0
 6-311+G(2d,p)
 ****
 1  2  14  15  16  17  18  19  20  21  22  24  25  26 0
 3-21G
 ****
 31  33  36  37  38  39  40  41  42  43  44  45  46 0
 3-21G
 ****


