%nproc=1
%NoSave
%Mem=1900MB
#P OB98/GEN NMR

erre ene a

0 1
  C      -14.386    -283.190     287.744
  O      -14.516    -283.004     289.143
  H      -14.132    -284.237     287.552
  H      -13.588    -282.559     287.341
  H      -15.327    -282.958     287.242
  P      -14.735    -281.512     289.692
  C      -16.965    -282.194     290.816
  O      -16.320    -281.349     289.868
  C      -18.212    -282.817     290.197
  O      -17.846    -283.712     289.126
  C      -19.017    -283.656     291.181
  O      -19.756    -282.833     292.062
  C      -19.840    -284.504     290.229
  O      -20.966    -283.780     289.726
  C      -18.818    -284.785     289.105
  N      -18.160    -286.085     289.243
  C      -18.771    -287.150     288.573
  O      -19.791    -286.973     287.910
  N      -18.213    -288.403     288.697
  C      -17.142    -288.567     289.408
  N      -16.642    -289.831     289.485
  C      -16.463    -287.466     290.116
  C      -17.025    -286.264     289.998
  O      -14.082    -280.406     288.919
  O      -14.204    -281.585     291.202
  H      -21.499    -283.533     290.510
  H      -13.254    -281.375     291.239
  H      -15.565    -287.651     290.692
  H      -16.587    -285.401     290.488
  H      -19.309    -284.750     288.120
  H      -20.216    -285.401     290.716
  H      -18.348    -284.321     291.741
  H      -18.828    -282.014     289.767
  H      -17.147    -290.557     288.992
  H      -17.241    -281.571     291.672
  H      -15.767    -290.064     289.933
  H      -16.280    -282.977     291.162
  P      -19.282    -282.627     293.581
  C      -19.263    -280.049     293.495
  O      -18.478    -281.236     293.595
  O      -18.562    -283.788     294.186
  O      -20.647    -282.258     294.333
  H      -21.220    -283.060     294.454
  H      -18.620    -279.194     293.515
  H      -19.945    -280.002     294.318
  H      -19.812    -280.061     292.577

 6  7  8  9  10  11  12  13  14  15  16  26  30  31  32  33  35 0
 6-311+G(2d,p)
 ****
 37  38 0
 6-311+G(2d,p)
 ****
 1  2  3  4  5  17  18  19  20  21  22  23  24  25 0
 3-21G
 ****
 27  28  29  34  36  39  40  41  42  43  44  45  46 0
 3-21G
 ****


