%nproc=1
%NoSave
%Mem=1900MB
#P OB98/GEN NMR

erre ene a

0 1
  C     -897.610     271.640    1289.090
  O     -896.640     272.669    1289.343
  P     -895.680     273.283    1288.222
  C     -895.810     275.864    1288.491
  O     -896.270     274.720    1287.774
  C     -896.970     276.717    1288.980
  O     -897.740     275.981    1289.982
  C     -896.590     278.005    1289.687
  O     -896.140     278.994    1288.785
  C     -897.900     278.358    1290.396
  O     -898.800     279.060    1289.524
  C     -898.480     276.969    1290.737
  N     -898.440     276.675    1292.166
  C     -899.310     277.415    1292.969
  O     -900.000     278.324    1292.503
  N     -899.370     277.114    1294.314
  C     -898.560     276.233    1294.802
  N     -898.670     275.958    1296.140
  C     -897.520     275.529    1294.006
  C     -897.530     275.798    1292.708
  O     -895.430     272.366    1287.074
  O     -894.320     273.646    1288.982
  H     -893.570     273.633    1288.348
  H     -898.380     279.926    1289.329
  H     -896.840     274.836    1294.472
  H     -896.810     275.318    1292.036
  H     -899.520     276.900    1290.390
  H     -897.730     279.010    1291.270
  H     -895.810     277.803    1290.440
  H     -897.640     276.922    1288.125
  H     -899.380     276.453    1296.658
  H     -895.190     276.463    1287.805
  H     -898.100     275.277    1296.624
  H     -895.180     275.548    1289.323
  P     -894.560     278.986    1288.424
  C     -894.480     279.161    1285.843
  O     -894.390     278.333    1286.977
  O     -893.960     277.881    1289.412
  O     -893.890     280.303    1288.593
  H     -893.090     278.175    1289.750
  H     -893.890     278.710    1285.032
  H     -894.090     280.170    1286.049
  H     -895.510     279.247    1285.513
  H     -898.123     271.403    1289.998
  H     -897.115     270.766    1288.721
  H     -898.314     271.985    1288.362

 3  4  5  6  7  8  9  10  11  12  13  24  27  28  29  30  32 0
 6-311+G(2d,p)
 ****
 34  35 0
 6-311+G(2d,p)
 ****
 1  2  14  15  16  17  18  19  20  21  22  23  25  26 0
 3-21G
 ****
 31  33  36  37  38  39  40  41  42  43  44  45  46 0
 3-21G
 ****


