%nproc=1
%NoSave
%Mem=1900MB
#P OB98/GEN NMR

erre ene a

0 1
  C     -893.530    -779.426    -378.365
  O     -894.100    -780.204    -377.324
  H     -894.300    -778.779    -378.782
  H     -893.150    -780.078    -379.161
  H     -892.720    -778.808    -377.972
  P     -893.100    -781.102    -376.457
  C     -894.050    -780.572    -374.067
  O     -893.010    -780.394    -375.021
  C     -894.560    -779.232    -373.546
  O     -895.030    -778.446    -374.685
  C     -895.710    -779.345    -372.544
  O     -895.580    -778.300    -371.571
  C     -896.950    -779.089    -373.395
  O     -898.050    -778.639    -372.605
  C     -896.420    -778.063    -374.404
  N     -897.210    -778.015    -375.627
  C     -897.790    -776.779    -375.944
  O     -897.610    -775.801    -375.220
  N     -898.580    -776.684    -377.078
  C     -898.830    -777.742    -377.765
  N     -899.630    -777.595    -378.858
  C     -898.270    -779.081    -377.434
  C     -897.480    -779.140    -376.389
  O     -891.670    -780.753    -377.130
  O     -893.410    -782.556    -376.437
  H     -898.340    -779.354    -372.011
  H     -891.560    -779.799    -377.308
  H     -898.520    -779.938    -378.057
  H     -897.040    -780.077    -376.066
  H     -896.380    -777.060    -373.972
  H     -897.260    -780.011    -373.896
  H     -895.740    -780.309    -372.045
  H     -893.730    -778.668    -373.124
  H     -900.000    -776.644    -379.042
  H     -893.690    -781.178    -373.220
  H     -899.930    -778.353    -379.436
  H     -894.860    -781.133    -374.555
  P     -894.250    -778.221    -370.698
  C     -894.060    -775.679    -370.199
  O     -893.530    -776.796    -370.915
  O     -893.340    -779.405    -370.759
  O     -894.840    -778.075    -369.195
  H     -894.280    -778.618    -368.613
  H     -893.492    -774.803    -370.434
  H     -894.003    -775.870    -369.148
  H     -895.081    -775.528    -370.479

 6  7  8  9  10  11  12  13  14  15  16  26  30  31  32  33  35 0
 6-311+G(2d,p)
 ****
 37  38 0
 6-311+G(2d,p)
 ****
 1  2  3  4  5  17  18  19  20  21  22  23  24  25 0
 3-21G
 ****
 27  28  29  34  36  39  40  41  42  43  44  45  46 0
 3-21G
 ****


