%nproc=1
%NoSave
%Mem=1900MB
#P OB98/GEN NMR

erre ene a

0 1
  C      496.341     -80.386     446.437
  O      494.927     -80.223     446.515
  P      494.074     -80.491     445.177
  C      493.964     -82.971     445.943
  O      494.222     -82.058     444.877
  C      492.742     -83.828     445.632
  O      492.930     -84.536     444.385
  C      492.426     -84.885     446.669
  O      491.714     -84.372     447.783
  C      491.544     -85.836     445.866
  O      490.203     -85.298     445.797
  C      492.210     -85.799     444.483
  N      492.628     -90.885     444.176
  C      491.586     -90.084     444.480
  N      491.565     -88.742     444.564
  C      492.771     -88.219     444.306
  C      493.948     -88.924     444.024
  C      493.840     -90.319     443.952
  N      494.906     -91.130     443.610
  N      494.989     -88.044     443.840
  C      494.475     -86.848     443.990
  N      493.135     -86.902     444.276
  O      494.977     -79.809     444.036
  O      492.683     -79.951     445.200
  H      490.274     -84.412     445.431
  H      494.417     -79.584     443.268
  H      490.645     -90.599     444.683
  H      495.023     -85.916     443.909
  H      491.482     -85.820     443.674
  H      491.464     -86.828     446.320
  H      493.340     -85.426     446.985
  H      491.881     -83.157     445.501
  H      493.786     -82.409     446.858
  H      494.705     -92.106     443.402
  H      495.743     -90.691     443.249
  H      494.842     -83.611     446.091
  P      491.435     -85.386     449.010
  C      492.246     -83.948     451.010
  O      492.522     -85.002     450.121
  O      491.943     -86.787     448.431
  O      490.014     -85.424     449.455
  H      491.483     -87.521     448.881
  H      492.930     -84.020     451.871
  H      491.223     -83.978     451.373
  H      492.429     -82.985     450.520
  H      496.777     -80.177     447.392
  H      496.738     -79.711     445.708
  H      496.569     -81.392     446.153

 3  4  5  6  7  8  9  10  11  12  22  25  29  30  31  32 0
 6-311+G(2d,p)
 ****
 33  36  37 0
 6-311+G(2d,p)
 ****
 1  2  13  14  15  16  17  18  19  20  21  23  24  26 0
 3-21G
 ****
 27  28  34  35  38  39  40  41  42  43  44  45  46  47  48 0
 3-21G
 ****


