%nproc=1
%NoSave
%Mem=1900MB
#P OB98/GEN NMR

erre ene a

0 1
  C     -113.334      29.606      33.469
  O     -114.386      29.373      32.554
  H     -113.332      28.806      34.213
  H     -113.483      30.561      33.979
  H     -112.373      29.608      32.949
  P     -114.549      30.432      31.361
  C     -115.500      28.380      30.080
  O     -115.573      29.780      30.313
  C     -116.269      28.029      28.811
  O     -115.840      28.886      27.727
  C     -116.035      26.607      28.321
  O     -116.781      25.653      29.054
  C     -116.462      26.724      26.867
  O     -117.883      26.601      26.726
  C     -116.011      28.142      26.499
  N     -113.930      27.045      21.970
  C     -115.208      27.022      22.404
  N     -115.683      27.342      23.626
  C     -114.686      27.746      24.430
  C     -113.338      27.826      24.127
  C     -112.964      27.454      22.825
  N     -111.661      27.453      22.389
  N     -112.617      28.246      25.226
  C     -113.513      28.426      26.174
  N     -114.777      28.140      25.739
  O     -113.136      30.354      30.614
  O     -114.876      31.823      31.790
  H     -118.132      25.776      27.185
  H     -112.578      31.104      30.894
  H     -115.945      26.693      21.678
  H     -113.298      28.752      27.184
  H     -116.761      28.673      25.899
  H     -115.999      25.945      26.262
  H     -114.965      26.368      28.356
  H     -117.337      28.211      28.987
  H     -115.942      27.847      30.929
  H     -114.449      28.090      29.987
  H     -111.458      27.109      21.465
  H     -110.922      27.646      23.053
  P     -116.126      24.208      29.280
  C     -117.236      24.385      31.633
  O     -116.850      23.551      30.549
  O     -114.651      24.535      29.810
  O     -116.099      23.342      28.067
  H     -114.021      23.871      29.469
  H     -117.702      23.791      32.391
  H     -117.926      25.125      31.285
  H     -116.371      24.866      32.038

 6  7  8  9  10  11  12  13  14  15  25  28  32  33  34  35 0
 6-311+G(2d,p)
 ****
 36  37  40 0
 6-311+G(2d,p)
 ****
 1  2  3  4  5  16  17  18  19  20  21  22  23  24 0
 3-21G
 ****
 26  27  29  30  31  38  39 41  42  43  44  45  46  47  48 0
 3-21G
 ****


