%nproc=1
%NoSave
%Mem=1900MB
#P OB98/GEN NMR

erre ene a

0 1
  C      -94.957     -14.681     -73.371
  O      -95.775     -13.786     -74.095
  H      -94.194     -15.115     -74.025
  H      -94.461     -14.132     -72.567
  H      -95.566     -15.476     -72.932
  P      -96.510     -14.383     -75.390
  C      -98.648     -15.370     -74.308
  O      -98.086     -14.324     -75.086
  C      -99.594     -14.796     -73.260
  O      -98.844     -14.217     -72.174
  C     -100.500     -13.677     -73.764
  O     -101.608     -14.180     -74.497
  C     -100.936     -13.054     -72.446
  O     -102.001     -13.834     -71.870
  C      -99.670     -13.179     -71.585
  N      -99.494      -8.393     -69.729
  C     -100.425      -9.369     -69.621
  N     -100.411     -10.610     -70.149
  C      -99.280     -10.819     -70.843
  C      -98.244      -9.923     -71.039
  C      -98.382      -8.654     -70.451
  N      -97.434      -7.662     -70.580
  N      -97.241     -10.494     -71.792
  C      -97.663     -11.715     -72.050
  N      -98.895     -11.957     -71.501
  O      -96.179     -15.950     -75.320
  O      -96.087     -13.793     -76.694
  H     -101.689     -14.759     -71.850
  H      -96.063     -16.289     -76.227
  H     -101.301      -9.119     -69.027
  H      -97.112     -12.453     -72.619
  H      -99.907     -13.502     -70.565
  H     -101.302     -12.031     -72.554
  H      -99.934     -12.939     -74.343
  H     -100.190     -15.624     -72.854
  H      -97.846     -15.920     -73.803
  H      -97.494      -6.857     -69.981
  H      -96.598      -7.871     -71.117
  H      -99.185     -16.055     -74.972
  P     -102.233     -13.234     -75.635
  C     -101.317     -13.978     -77.945
  O     -102.323     -14.144     -76.952
  O     -101.034     -12.226     -75.965
  O     -103.475     -12.510     -75.245
  H     -101.392     -11.390     -76.324
  H     -101.506     -14.646     -78.759
  H     -100.359     -14.194     -77.521
  H     -101.330     -12.969     -78.301

 6  7  8  9  10  11  12  13  14  15  25  28  32  33  34  35 0
 6-311+G(2d,p)
 ****
 36  39  40 0
 6-311+G(2d,p)
 ****
 1  2  3  4  5  16  17  18  19  20  21  22  23  24 0
 3-21G
 ****
 26  27  29  30  31  37  38  41  42  43  44  45  46  47  48 0
 3-21G
 ****


