%nproc=1
%NoSave
%Mem=1900MB
#P OB98/GEN NMR

erre ene a

0 1
  C      -82.716      30.199       4.735
  O      -83.925      30.609       5.346
  H      -82.346      31.013       4.103
  H      -82.886      29.319       4.110
  H      -81.962      29.976       5.498
  P      -84.668      29.530       6.278
  C      -83.381      30.323       8.393
  O      -83.691      29.243       7.520
  C      -83.227      29.797       9.819
  O      -82.245      28.729       9.847
  C      -82.723      30.837      10.813
  O      -83.748      31.719      11.231
  C      -82.219      29.940      11.936
  O      -83.284      29.549      12.816
  C      -81.657      28.724      11.164
  N      -80.203      28.728      11.115
  C      -79.563      27.798      11.937
  O      -80.171      27.013      12.666
  N      -78.193      27.826      11.916
  C      -77.418      28.693      11.206
  O      -76.193      28.713      11.294
  C      -78.147      29.645      10.343
  C      -79.485      29.625      10.345
  O      -84.589      28.187       5.411
  O      -86.071      29.879       6.649
  H      -85.448      28.010       4.989
  H      -82.892      28.922      13.454
  H      -77.716      27.170      12.513
  H      -77.558      30.349       9.762
  H      -80.039      30.330       9.735
  H      -81.982      27.787      11.648
  H      -81.470      30.447      12.547
  H      -81.870      31.386      10.388
  H      -84.194      29.387      10.147
  H      -84.192      31.059       8.370
  H      -82.457      30.808       8.048
  P      -83.342      33.220      11.640
  C      -83.151      34.165       9.190
  O      -82.510      33.820      10.405
  O      -82.238      32.949      12.762
  O      -84.496      34.058      12.077
  H      -81.689      32.164      12.576
  H      -82.427      34.544       8.500
  H      -83.891      34.915       9.378
  H      -83.619      33.297       8.775

 6  7  8  9  10  11  12  13  14  15  16  27  31  32  33  34  35 0
 6-311+G(2d,p)
 ****
 36  37 0
 6-311+G(2d,p)
 ****
 1  2  3  4  5  17  18  19  20  21  22  23  24  25 0
 3-21G
 ****
 26  28  29  30  38  39  40  41  42  43  44  45 0
 3-21G
 ****


