%nproc=1
%NoSave
%Mem=1900MB
#P OB98/GEN NMR

erre ene a

0 1
  C      153.921      33.309    -216.121
  O      152.528      33.100    -215.903
  P      151.569      33.086    -217.188
  C      149.461      32.520    -215.731
  O      150.073      33.365    -216.689
  C      148.065      33.038    -215.343
  O      148.230      34.253    -214.562
  C      147.166      33.430    -216.512
  O      145.810      33.480    -216.051
  C      147.647      34.834    -216.816
  O      146.695      35.559    -217.591
  C      147.936      35.399    -215.406
  N      149.060      36.357    -215.372
  C      148.877      37.615    -215.942
  O      147.832      37.982    -216.479
  N      149.962      38.453    -215.917
  C      151.172      38.177    -215.353
  O      152.136      38.932    -215.435
  C      151.267      36.895    -214.643
  C      150.231      36.054    -214.693
  O      151.558      31.545    -217.625
  O      152.027      33.980    -218.292
  H      145.820      35.424    -217.152
  H      152.104      31.420    -218.426
  H      149.864      39.342    -216.389
  H      152.190      36.672    -214.123
  H      150.293      35.093    -214.189
  H      147.057      35.913    -215.000
  H      148.573      34.787    -217.398
  H      147.240      32.774    -217.382
  H      147.572      32.301    -214.705
  H      150.099      32.435    -214.848
  H      149.369      31.506    -216.145
  P      144.714      32.623    -216.844
  C      143.927      31.385    -214.731
  O      143.568      32.267    -215.779
  O      145.234      31.475    -217.643
  O      144.000      33.721    -217.772
  H      143.531      33.278    -218.500
  H      143.320      31.617    -213.852
  H      144.985      31.485    -214.469
  H      143.729      30.354    -215.042
  H      154.435      33.294    -215.183
  H      154.070      34.257    -216.594
  H      154.304      32.533    -216.750

 3  4  5  6  7  8  9  10  11  12  13  23  28  29  30  31  32 0
 6-311+G(2d,p)
 ****
 33  34 0
 6-311+G(2d,p)
 ****
 1  2  14  15  16  17  18  19  20  21  22  24  25  26  27 0
 3-21G
 ****
 35  36  37  38  39  40  41  42  43  44  45 0
 3-21G
 ****


