%nproc=1
%NoSave
%Mem=1900MB
#P OB98/GEN NMR

erre ene a

0 1
  C      171.130     213.998    1474.895
  O      170.056     213.325    1474.261
  H      170.926     215.077    1474.866
  H      172.065     213.804    1474.374
  H      171.202     213.695    1475.943
  P      170.154     211.737    1474.074
  C      168.979     211.481    1476.363
  O      170.074     211.091    1475.539
  C      168.904     210.599    1477.614
  O      168.426     209.283    1477.237
  C      170.264     210.406    1478.313
  O      169.992     210.223    1479.722
  C      170.737     209.096    1477.699
  O      171.808     208.546    1478.417
  C      169.415     208.321    1477.645
  N      169.477     207.171    1476.744
  C      170.151     206.053    1477.227
  O      170.676     206.070    1478.349
  N      170.263     204.950    1476.413
  C      169.784     204.991    1475.214
  N      169.936     203.875    1474.446
  C      169.116     206.174    1474.644
  C      168.986     207.234    1475.463
  O      171.300     211.256    1473.241
  O      168.750     211.337    1473.416
  H      172.557     209.180    1478.458
  H      168.871     211.144    1472.465
  H      168.757     206.174    1473.616
  H      168.524     208.150    1475.136
  H      169.134     207.968    1478.645
  H      171.117     209.286    1476.672
  H      170.950     211.245    1478.177
  H      168.156     211.019    1478.310
  H      170.409     203.078    1474.873
  H      168.058     211.372    1475.776
  H      169.630     203.795    1473.491
  H      169.082     212.538    1476.658
  P      171.037     210.608    1480.861
  C      169.413     211.859    1482.434
  O      170.554     211.953    1481.592
  O      172.473     210.646    1480.400
  O      170.846     209.499    1482.005
  H      171.711     209.369    1482.452
  H      169.201     212.819    1482.855
  H      169.607     211.160    1483.220
  H      168.573     211.527    1481.860

 6  7  8  9  10  11  12  13  14  15  16  26  30  31  32  33  35 0
 6-311+G(2d,p)
 ****
 37  38 0
 6-311+G(2d,p)
 ****
 1  2  3  4  5  17  18  19  20  21  22  23  24  25 0
 3-21G
 ****
 27  28  29  34  36  39  40  41  42  43  44  45  46 0
 3-21G
 ****


