%nproc=1
%NoSave
%Mem=1900MB
#P OB98/GEN NMR

erre ene a

0 1
  C     -133.028     248.434    -182.546
  O     -134.385     248.468    -182.145
  P     -134.797     248.306    -180.605
  C     -135.509     245.844    -180.698
  O     -134.561     246.776    -180.189
  C     -135.869     244.790    -179.653
  O     -134.709     243.961    -179.384
  C     -136.352     245.371    -178.316
  O     -137.397     244.516    -177.837
  C     -135.125     245.256    -177.431
  O     -135.451     245.264    -176.047
  C     -134.512     243.956    -177.956
  N     -133.103     243.823    -177.607
  C     -132.805     243.476    -176.291
  O     -133.703     243.427    -175.446
  N     -131.496     243.211    -175.960
  C     -130.560     243.460    -176.825
  N     -129.286     243.119    -176.481
  C     -130.823     244.063    -178.145
  C     -132.106     244.176    -178.487
  O     -136.144     248.846    -180.250
  O     -133.642     249.078    -179.803
  H     -134.053     249.730    -179.203
  H     -136.149     245.932    -175.885
  H     -130.002     244.369    -178.778
  H     -132.400     244.583    -179.449
  H     -135.057     243.086    -177.561
  H     -134.454     246.105    -177.623
  H     -136.732     246.393    -178.408
  H     -136.640     244.136    -180.082
  H     -129.146     242.671    -175.585
  H     -135.069     245.351    -181.567
  H     -128.556     242.977    -177.184
  H     -136.408     246.373    -181.037
  P     -138.818     245.180    -177.469
  C     -138.204     245.142    -174.948
  O     -138.671     245.901    -176.047
  O     -139.695     243.883    -177.100
  O     -139.492     245.955    -178.558
  H     -140.640     244.087    -177.244
  H     -138.232     245.772    -174.055
  H     -137.170     244.828    -175.120
  H     -138.840     244.273    -174.779
  H     -132.966     248.559    -183.607
  H     -132.599     247.493    -182.272
  H     -132.493     249.224    -182.062

 3  4  5  6  7  8  9  10  11  12  13  24  27  28  29  30  32 0
 6-311+G(2d,p)
 ****
 34  35 0
 6-311+G(2d,p)
 ****
 1  2  14  15  16  17  18  19  20  21  22  23  25  26 0
 3-21G
 ****
 31  33  36  37  38  39  40  41  42  43  44  45  46 0
 3-21G
 ****


