%nproc=1
%NoSave
%Mem=1900MB
#P OB98/GEN NMR

erre ene a

0 1
  C     -524.181    -424.177      97.025
  O     -524.929    -423.305      97.890
  P     -524.256    -422.394      99.027
  C     -525.166    -423.616     101.121
  O     -524.027    -423.307     100.328
  C     -524.810    -424.607     102.239
  O     -523.695    -424.098     103.017
  C     -525.905    -424.848     103.267
  O     -526.960    -425.652     102.763
  C     -525.111    -425.500     104.392
  O     -524.946    -426.916     104.176
  C     -523.740    -424.798     104.277
  N     -523.491    -423.877     105.382
  C     -523.683    -424.397     106.681
  O     -524.126    -425.539     106.831
  N     -523.385    -423.590     107.755
  C     -523.029    -422.355     107.560
  N     -522.736    -421.611     108.659
  C     -522.944    -421.738     106.218
  C     -523.186    -422.553     105.193
  O     -524.993    -421.121      99.307
  O     -522.772    -422.081      98.492
  H     -522.451    -421.251      98.883
  H     -524.441    -427.261     104.934
  H     -522.696    -420.688     106.111
  H     -523.146    -422.184     104.171
  H     -522.939    -425.538     104.240
  H     -525.600    -425.382     105.366
  H     -526.301    -423.886     103.609
  H     -524.503    -425.555     101.760
  H     -522.785    -422.063     109.564
  H     -525.924    -424.067     100.471
  H     -522.413    -420.650     108.612
  H     -525.576    -422.683     101.539
  P     -528.336    -424.904     102.413
  C     -529.493    -425.518     104.677
  O     -529.011    -424.487     103.820
  O     -529.280    -426.091     101.886
  O     -528.223    -423.805     101.419
  H     -529.831    -425.765     101.139
  H     -529.457    -425.144     105.705
  H     -528.888    -426.424     104.596
  H     -530.538    -425.742     104.416
  H     -524.850    -424.675      96.355
  H     -523.660    -424.903      97.614
  H     -523.476    -423.602      96.462

 3  4  5  6  7  8  9  10  11  12  13  24  27  28  29  30  32 0
 6-311+G(2d,p)
 ****
 34  35 0
 6-311+G(2d,p)
 ****
 1  2  14  15  16  17  18  19  20  21  22  23  25  26 0
 3-21G
 ****
 31  33  36  37  38  39  40  41  42  43  44  45  46 0
 3-21G
 ****


