%nproc=1
%NoSave
%Mem=1900MB
#P OB98/GEN NMR

erre ene a

0 1
  C      241.196    -839.275      -1.940
  O      240.906    -840.684      -1.943
  P      241.843    -841.669      -1.082
  C      244.069    -842.147      -2.350
  O      242.756    -842.569      -2.056
  C      244.604    -842.806      -3.630
  O      244.860    -844.230      -3.391
  C      243.657    -842.733      -4.837
  O      244.464    -842.650      -6.017
  C      242.940    -844.068      -4.783
  O      242.328    -844.431      -6.024
  C      244.097    -844.979      -4.347
  N      243.666    -846.267      -3.797
  C      243.961    -847.416      -4.523
  O      244.497    -847.424      -5.642
  N      243.586    -848.603      -3.946
  C      242.915    -848.750      -2.755
  O      242.572    -849.830      -2.306
  C      242.618    -847.475      -2.050
  C      243.000    -846.319      -2.598
  O      240.774    -842.745      -0.536
  O      242.575    -841.046       0.062
  H      241.813    -845.235      -5.865
  H      240.929    -842.906       0.418
  H      243.788    -849.448      -4.457
  H      242.099    -847.559      -1.103
  H      242.810    -845.399      -2.074
  H      244.761    -845.152      -5.209
  H      242.142    -844.019      -4.030
  H      242.968    -841.875      -4.786
  H      245.566    -842.358      -3.884
  H      244.736    -842.397      -1.526
  H      244.072    -841.045      -2.478
  P      244.870    -841.191      -6.576
  C      244.616    -842.111      -9.005
  O      245.401    -841.398      -8.077
  O      246.217    -840.934      -5.730
  O      243.839    -840.138      -6.359
  H      246.806    -841.706      -5.722
  H      243.553    -841.849      -8.920
  H      244.742    -843.177      -8.879
  H      244.954    -841.836     -10.015
  H      240.486    -838.763      -2.556
  H      242.182    -839.113      -2.322
  H      241.135    -838.900      -0.940

 3  4  5  6  7  8  9  10  11  12  13  23  28  29  30  31  32 0
 6-311+G(2d,p)
 ****
 33  34 0
 6-311+G(2d,p)
 ****
 1  2  14  15  16  17  18  19  20  21  22  24  25  26 0
 3-21G
 ****
 27  35  36  37  38  39  40  41  42  43  44  45 0
 3-21G
 ****


