%nproc=1
%NoSave
%Mem=1900MB
#P OB98/GEN NMR

erre ene a

0 1
  C      -14.659     871.568     142.764
  O      -15.061     872.922     142.879
  P      -15.142     873.642     144.301
  C      -17.696     874.126     144.677
  O      -16.417     874.599     144.312
  C      -18.752     875.123     144.185
  O      -18.463     876.444     144.680
  C      -18.792     875.188     142.659
  O      -19.788     874.315     142.143
  C      -19.081     876.655     142.401
  O      -20.489     876.921     142.534
  C      -18.294     877.335     143.546
  N      -16.847     877.561     143.359
  C      -16.416     878.626     142.575
  O      -17.173     879.433     142.036
  N      -15.052     878.727     142.404
  C      -14.119     877.910     142.971
  O      -12.946     877.857     142.622
  C      -14.619     876.988     143.992
  C      -15.939     876.842     144.121
  O      -13.913     874.663     144.259
  O      -15.071     872.734     145.483
  H      -20.952     876.359     141.891
  H      -13.140     874.296     144.730
  H      -14.745     879.413     141.722
  H      -13.900     876.419     144.565
  H      -16.331     876.138     144.848
  H      -18.741     878.299     143.809
  H      -18.813     876.933     141.384
  H      -17.807     874.945     142.246
  H      -19.733     874.821     144.576
  H      -17.755     874.013     145.766
  H      -17.868     873.137     144.242
  P      -19.416     873.302     140.965
  C      -21.431     874.520     139.956
  O      -20.678     873.324     139.980
  O      -18.961     871.943     141.402
  O      -18.270     874.077     140.160
  H      -17.387     873.755     140.440
  H      -22.144     874.477     139.125
  H      -20.772     875.388     139.819
  H      -21.987     874.629     140.891
  H      -14.671     871.279     141.734
  H      -15.333     870.948     143.317
  H      -13.669     871.455     143.154

 3  4  5  6  7  8  9  10  11  12  13  23  28  29  30  31  32 0
 6-311+G(2d,p)
 ****
 33  34 0
 6-311+G(2d,p)
 ****
 1  2  14  15  16  17  18  19  20  21  22  24  25  26  27 0
 3-21G
 ****
 35  36  37  38  39  40  41  42  43  44  45 0
 3-21G
 ****


