%nproc=1
%NoSave
%Mem=1900MB
#P OB98/GEN NMR

erre ene a

0 1
  C     -116.298     200.529    -126.398
  O     -115.621     201.760    -126.558
  H     -115.692     199.875    -125.765
  H     -116.433     200.050    -127.371
  H     -117.270     200.683    -125.921
  P     -116.426     202.958    -127.255
  C     -116.105     205.537    -127.169
  O     -115.487     204.258    -127.156
  C     -115.086     206.614    -126.795
  O     -114.542     206.300    -125.481
  C     -113.902     206.716    -127.768
  O     -113.525     208.093    -127.875
  C     -112.802     205.955    -127.052
  O     -111.490     206.318    -127.456
  C     -113.105     206.313    -125.593
  N     -112.494     205.382    -124.646
  C     -111.117     205.455    -124.477
  O     -110.388     206.298    -124.997
  N     -110.570     204.497    -123.659
  C     -111.248     203.491    -123.035
  O     -110.699     202.649    -122.332
  C     -112.698     203.460    -123.260
  C     -113.248     204.391    -124.044
  O     -117.595     203.263    -126.206
  O     -116.946     202.671    -128.624
  H     -118.380     202.719    -126.403
  H     -111.431     207.295    -127.413
  H     -109.573     204.535    -123.526
  H     -113.267     202.668    -122.789
  H     -114.313     204.385    -124.249
  H     -112.770     207.332    -125.374
  H     -112.923     204.878    -127.221
  H     -114.104     206.309    -128.764
  H     -115.605     207.574    -126.708
  H     -116.922     205.553    -126.442
  H     -116.515     205.729    -128.167
  P     -113.801     208.827    -129.277
  C     -113.557     211.313    -130.069
  O     -113.623     210.393    -128.987
  O     -115.379     208.625    -129.424
  O     -112.982     208.273    -130.396
  H     -115.850     208.659    -128.575
  H     -113.438     212.305    -129.687
  H     -114.460     211.257    -130.641
  H     -112.723     211.069    -130.694

 6  7  8  9  10  11  12  13  14  15  16  27  31  32  33  34  35 0
 6-311+G(2d,p)
 ****
 36  37 0
 6-311+G(2d,p)
 ****
 1  2  3  4  5  17  18  19  20  21  22  23  24  25 0
 3-21G
 ****
 26  28  29  30  38  39  40  41  42  43  44  45 0
 3-21G
 ****


