%nproc=1
%NoSave
%Mem=1900MB
#P OB98/GEN NMR

erre ene a

0 1
  C      376.677    1057.697     857.051
  O      376.691    1056.680     858.037
  H      375.637    1058.032     856.921
  H      377.052    1057.301     856.114
  H      377.283    1058.555     857.368
  P      378.129    1056.084     858.416
  C      378.201    1053.916     856.980
  O      378.625    1055.247     857.136
  C      377.863    1053.637     855.509
  O      379.064    1053.839     854.700
  C      377.386    1052.188     855.229
  O      376.471    1052.196     854.110
  C      378.677    1051.522     854.812
  O      378.422    1050.283     854.188
  C      379.302    1052.604     853.972
  N      382.781    1051.575     850.389
  C      381.434    1051.772     850.315
  N      380.566    1052.041     851.321
  C      381.240    1052.156     852.471
  C      382.586    1051.958     852.712
  C      383.367    1051.656     851.594
  N      384.723    1051.408     851.656
  N      382.888    1052.123     854.071
  C      381.741    1052.379     854.643
  N      380.708    1052.410     853.707
  O      377.789    1054.937     859.495
  O      379.133    1057.069     858.956
  H      379.233    1049.919     853.790
  H      377.829    1055.301     860.386
  H      380.978    1051.719     849.314
  H      381.564    1052.542     855.703
  H      378.806    1052.724     853.005
  H      379.324    1051.290     855.689
  H      376.884    1051.727     856.110
  H      377.117    1054.367     855.161
  H      377.314    1053.747     857.600
  H      378.995    1053.240     857.298
  H      385.213    1051.172     850.803
  H      385.194    1051.426     852.549
  P      374.925    1051.975     854.383
  C      374.862    1049.371     854.358
  O      374.669    1050.558     855.092
  O      374.350    1051.700     852.896
  O      374.191    1053.125     854.993
  H      373.555    1052.214     852.744
  H      374.648    1048.528     854.981
  H      375.877    1049.319     854.024
  H      374.207    1049.365     853.512

 6  7  8  9  10  11  12  13  14  15  25  28  32  33  34  35 0
 6-311+G(2d,p)
 ****
 36  37  40 0
 6-311+G(2d,p)
 ****
 1  2  3  4  5  16  17  18  19  20  21  22  23  24 0
 3-21G
 ****
 26  27  29  30  31  38  39 41  42  43  44  45  46  47  48 0
 3-21G
 ****


