%nproc=1
%NoSave
%Mem=1900MB
#P OB98/GEN NMR

erre ene a

0 1
  C      -86.275    -244.726      75.895
  O      -87.162    -244.361      76.933
  H      -86.713    -244.492      74.919
  H      -85.347    -244.161      76.011
  H      -86.048    -245.794      75.954
  P      -88.629    -245.009      76.875
  C      -89.468    -242.945      75.549
  O      -89.363    -244.360      75.603
  C      -89.124    -242.445      74.151
  O      -87.888    -243.038      73.701
  C      -90.150    -242.789      73.079
  O      -91.273    -241.917      73.120
  C      -89.321    -242.577      71.819
  O      -89.269    -241.172      71.505
  C      -87.932    -243.071      72.250
  N      -85.912    -245.924      68.488
  C      -86.065    -244.585      68.624
  N      -86.620    -243.900      69.642
  C      -87.034    -244.733      70.611
  C      -86.945    -246.119      70.615
  C      -86.362    -246.720      69.486
  N      -86.226    -248.084      69.352
  N      -87.463    -246.637      71.782
  C      -87.855    -245.587      72.475
  N      -87.623    -244.414      71.804
  O      -89.385    -244.334      78.120
  O      -88.674    -246.498      76.952
  H      -88.922    -240.720      72.299
  H      -89.993    -244.990      78.512
  H      -85.685    -243.985      67.800
  H      -88.305    -245.627      73.458
  H      -87.141    -242.403      71.891
  H      -89.727    -243.093      70.947
  H      -90.453    -243.839      73.142
  H      -88.971    -241.357      74.211
  H      -88.775    -242.503      76.272
  H      -85.627    -248.441      68.626
  H      -86.557    -248.671      70.112
  H      -90.490    -242.656      75.816
  P      -92.678    -242.544      73.587
  C      -93.624    -241.613      71.355
  O      -93.535    -242.726      72.242
  O      -93.395    -241.314      74.317
  O      -92.576    -243.739      74.473
  H      -94.044    -241.648      74.970
  H      -94.222    -241.879      70.508
  H      -92.643    -241.339      71.027
  H      -94.074    -240.786      71.864

 6  7  8  9  10  11  12  13  14  15  25  28  32  33  34  35 0
 6-311+G(2d,p)
 ****
 36  39  40 0
 6-311+G(2d,p)
 ****
 1  2  3  4  5  16  17  18  19  20  21  22  23  24 0
 3-21G
 ****
 26  27  29  30  31  37  38  41  42  43  44  45  46  47  48 0
 3-21G
 ****


