%nproc=1
%NoSave
%Mem=1900MB
#P OB98/GEN NMR

erre ene a

0 1
  C      175.766      55.533     454.421
  O      175.282      54.593     453.482
  H      175.216      56.470     454.297
  H      176.828      55.722     454.244
  H      175.617      55.168     455.441
  P      175.796      53.086     453.655
  C      173.666      52.235     454.927
  O      175.066      52.478     454.954
  C      173.306      51.142     455.929
  O      173.928      49.892     455.570
  C      173.806      51.399     457.340
  O      173.079      52.414     457.998
  C      173.623      50.021     457.961
  O      172.283      49.827     458.432
  C      173.926      49.081     456.770
  N      175.174      48.365     456.954
  C      175.084      46.970     456.853
  O      174.003      46.437     456.603
  N      176.210      46.221     457.074
  C      177.321      46.808     457.397
  N      178.392      46.005     457.636
  C      177.458      48.273     457.515
  C      176.355      48.984     457.284
  O      177.304      53.290     454.145
  O      175.659      52.235     452.438
  H      172.244      48.911     458.777
  H      177.395      53.921     454.878
  H      178.410      48.714     457.774
  H      176.366      50.067     457.349
  H      173.123      48.345     456.647
  H      174.285      49.874     458.817
  H      174.881      51.626     457.325
  H      172.216      51.008     455.911
  H      178.241      45.003     457.597
  H      173.345      51.948     453.920
  H      179.283      46.343     457.969
  H      173.160      53.170     455.183
  P      173.810      53.485     458.938
  C      173.740      55.471     457.298
  O      174.564      54.518     457.962
  O      174.675      52.912     460.009
  O      172.595      54.373     459.486
  H      172.072      54.821     458.798
  H      174.348      56.099     456.681
  H      173.230      56.069     458.024
  H      173.023      54.960     456.690

 6  7  8  9  10  11  12  13  14  15  16  26  30  31  32  33  35 0
 6-311+G(2d,p)
 ****
 37  38 0
 6-311+G(2d,p)
 ****
 1  2  3  4  5  17  18  19  20  21  22  23  24  25 0
 3-21G
 ****
 27  28  29  34  36  39  40  41  42  43  44  45  46 0
 3-21G
 ****


