%nproc=1
%NoSave
%Mem=1900MB
#P OB98/GEN NMR

erre ene a

0 1
  C      -36.991     344.190     613.854
  O      -37.380     345.350     614.594
  P      -37.288     345.298     616.195
  C      -35.169     346.770     616.322
  O      -36.533     346.621     616.707
  C      -34.794     348.257     616.224
  O      -35.486     348.843     615.087
  C      -35.202     349.111     617.435
  O      -34.280     349.226     618.522
  C      -35.302     350.496     616.802
  O      -33.995     351.100     616.730
  C      -35.811     350.214     615.392
  N      -39.511     353.739     615.098
  C      -38.177     353.844     615.226
  N      -37.259     352.856     615.300
  C      -37.848     351.654     615.209
  C      -39.200     351.390     615.072
  C      -40.060     352.503     615.019
  N      -41.426     352.393     614.903
  N      -39.430     350.029     615.026
  C      -38.233     349.483     615.148
  N      -37.246     350.424     615.250
  O      -36.804     344.016     616.783
  O      -38.807     345.586     616.631
  H      -34.137     352.063     616.675
  H      -39.018     345.043     617.417
  H      -37.782     354.859     615.278
  H      -38.044     348.420     615.172
  H      -35.326     350.842     614.635
  H      -35.928     351.177     617.392
  H      -36.181     348.803     617.816
  H      -33.713     348.346     616.052
  H      -35.005     346.287     615.357
  H      -41.973     353.238     614.915
  H      -41.852     351.476     614.900
  H      -34.561     346.231     617.052
  P      -34.754     349.718     619.968
  C      -34.357     347.447     621.199
  O      -33.974     348.788     621.015
  O      -36.230     349.779     620.165
  O      -34.007     351.125     620.115
  H      -33.042     351.064     620.195
  H      -33.591     346.930     621.775
  H      -34.475     346.936     620.240
  H      -35.299     347.399     621.753
  H      -37.108     344.379     612.807
  H      -37.607     343.363     614.138
  H      -35.967     343.960     614.063

 3  4  5  6  7  8  9  10  11  12  22  25  29  30  31  32 0
 6-311+G(2d,p)
 ****
 33  36  37 0
 6-311+G(2d,p)
 ****
 1  2  13  14  15  16  17  18  19  20  21  23  24  26 0
 3-21G
 ****
 27  28  34  35  38  39  40  41  42  43  44  45  46  47  48 0
 3-21G
 ****


