%nproc=1
%NoSave
%Mem=1900MB
#P OB98/GEN NMR

erre ene a

0 1
  C      106.223     152.812    -124.659
  O      106.380     153.129    -123.291
  H      106.263     151.726    -124.774
  H      107.034     153.255    -125.243
  H      105.259     153.168    -125.033
  P      106.159     154.644    -122.818
  C      104.129     156.236    -122.759
  O      104.724     155.099    -123.372
  C      103.192     156.926    -123.745
  O      103.909     157.292    -124.943
  C      102.027     156.058    -124.208
  O      101.035     155.965    -123.204
  C      101.600     156.803    -125.463
  O      100.791     157.943    -125.131
  C      102.968     157.247    -126.039
  N      103.452     156.375    -127.108
  C      102.568     156.130    -128.155
  O      101.422     156.577    -128.184
  N      103.042     155.334    -129.164
  C      104.254     154.706    -129.185
  O      104.610     153.957    -130.091
  C      105.132     154.973    -128.038
  C      104.699     155.780    -127.069
  O      107.275     155.589    -123.118
  O      105.907     154.512    -121.241
  H      100.017     157.603    -124.642
  H      106.725     154.735    -120.758
  H      102.411     155.135    -129.925
  H      106.099     154.486    -128.018
  H      105.331     155.986    -126.212
  H      102.900     158.267    -126.435
  H      101.012     156.186    -126.141
  H      102.387     155.064    -124.496
  H      102.824     157.851    -123.278
  H      104.922     156.931    -122.462
  H      103.584     155.913    -121.867
  P       99.999     154.747    -123.188
  C      100.145     152.202    -122.932
  O      100.849     153.387    -123.286
  O       98.879     154.852    -124.168
  O       99.450     154.723    -121.686
  H       98.537     155.071    -121.661
  H      100.795     151.358    -123.030
  H       99.303     152.080    -123.580
  H       99.808     152.277    -121.919

 6  7  8  9  10  11  12  13  14  15  16  26  31  32  33  34  35 0
 6-311+G(2d,p)
 ****
 36  37 0
 6-311+G(2d,p)
 ****
 1  2  3  4  5  17  18  19  20  21  22  23  24  25 0
 3-21G
 ****
 27  28  29  30  38  39  40  41  42  43  44  45 0
 3-21G
 ****


