%nproc=1
%NoSave
%Mem=1900MB
#P OB98/GEN NMR

erre ene a

0 1
  C     -204.206      24.111    -269.372
  O     -204.702      23.971    -270.685
  H     -204.988      23.797    -268.673
  H     -203.954      25.155    -269.164
  H     -203.330      23.478    -269.224
  P     -203.832      24.539    -271.913
  C     -205.283      26.658    -271.954
  O     -204.833      25.533    -272.700
  C     -206.717      27.040    -272.329
  O     -206.725      27.710    -273.618
  C     -207.673      25.842    -272.423
  O     -208.886      26.144    -271.730
  C     -207.935      25.707    -273.916
  O     -209.171      25.052    -274.188
  C     -207.833      27.170    -274.366
  N     -207.636      27.311    -275.806
  C     -208.697      27.858    -276.530
  O     -209.750      28.158    -275.962
  N     -208.566      28.015    -277.889
  C     -207.484      27.615    -278.478
  N     -207.415      27.786    -279.824
  C     -206.353      26.987    -277.757
  C     -206.493      26.875    -276.433
  O     -203.189      23.494    -272.757
  O     -202.791      25.547    -271.230
  H     -209.886      25.726    -274.197
  H     -202.026      25.694    -271.846
  H     -205.477      26.657    -278.294
  H     -205.710      26.434    -275.823
  H     -208.740      27.729    -274.083
  H     -207.131      25.120    -274.379
  H     -207.260      24.926    -272.007
  H     -207.079      27.781    -271.604
  H     -208.208      28.222    -280.280
  H     -204.603      27.497    -272.141
  H     -206.622      27.504    -280.387
  H     -205.249      26.398    -270.888
  P     -209.132      25.351    -270.356
  C     -211.343      24.098    -270.873
  O     -210.717      25.162    -270.168
  O     -208.739      26.425    -269.236
  O     -208.324      24.103    -270.231
  H     -207.845      26.245    -268.897
  H     -212.390      24.093    -270.654
  H     -210.911      23.167    -270.571
  H     -211.199      24.233    -271.925

 6  7  8  9  10  11  12  13  14  15  16  26  30  31  32  33  35 0
 6-311+G(2d,p)
 ****
 37  38 0
 6-311+G(2d,p)
 ****
 1  2  3  4  5  17  18  19  20  21  22  23  24  25 0
 3-21G
 ****
 27  28  29  34  36  39  40  41  42  43  44  45  46 0
 3-21G
 ****


