%nproc=1
%NoSave
%Mem=1900MB
#P OB98/GEN NMR

erre ene a

0 1
  C     -226.939    -119.616      75.827
  O     -226.156    -118.560      76.355
  P     -226.813    -117.686      77.533
  C     -229.336    -117.029      77.680
  O     -228.137    -117.027      76.922
  C     -230.395    -116.186      76.970
  O     -230.668    -116.726      75.659
  C     -231.734    -116.126      77.693
  O     -231.694    -115.158      78.725
  C     -232.679    -115.770      76.550
  O     -232.644    -114.356      76.275
  C     -232.089    -116.573      75.384
  N     -235.414    -119.204      72.633
  C     -235.165    -117.848      72.663
  N     -235.878    -117.084      71.803
  N     -234.295    -117.284      73.462
  C     -233.669    -118.167      74.276
  C     -233.839    -119.528      74.351
  C     -234.766    -120.142      73.425
  O     -234.949    -121.348      73.288
  N     -233.041    -120.084      75.315
  C     -232.368    -119.062      75.801
  N     -232.697    -117.879      75.191
  O     -225.798    -116.460      77.682
  O     -227.025    -118.416      78.822
  H     -231.724    -114.085      76.103
  H     -225.184    -116.608      78.427
  H     -236.082    -119.582      71.984
  H     -231.620    -119.128      76.576
  H     -232.175    -116.040      74.430
  H     -233.720    -116.017      76.784
  H     -236.579    -117.443      71.178
  H     -231.998    -117.112      78.094
  H     -235.708    -116.086      71.817
  H     -229.984    -115.176      76.832
  H     -229.137    -116.600      78.666
  H     -229.682    -118.062      77.806
  P     -232.669    -115.379      79.983
  C     -235.239    -115.697      80.127
  O     -234.154    -115.043      79.495
  O     -232.296    -114.159      80.953
  O     -232.499    -116.692      80.671
  H     -232.353    -114.454      81.880
  H     -236.111    -115.040      80.096
  H     -235.014    -115.942      81.169
  H     -235.468    -116.616      79.583
  H     -226.391    -120.115      75.056
  H     -227.846    -119.219      75.420
  H     -227.172    -120.311      76.606

 3  4  5  6  7  8  9  10  11  12  23  26  30  31 0
 6-311+G(2d,p)
 ****
 33  35  36  37  38 0
 6-311+G(2d,p)
 ****
 1  2  13  14  15  16  17  18  19  20  21  22  24  25 0
 3-21G
 ****
 27  28  29  32  34  39  40  41  42  43  44  45  46  47  48  49 0
 3-21G
 ****


