%nproc=1
%NoSave
%Mem=1900MB
#P OB98/GEN NMR

erre ene a

0 1
  C       98.509    -115.607     203.303
  O       99.179    -115.985     204.490
  H       97.539    -115.171     203.565
  H       98.337    -116.500     202.690
  H       99.088    -114.876     202.739
  P      100.755    -116.273     204.383
  C      101.148    -115.190     206.708
  O      101.312    -116.338     205.891
  C      101.861    -115.389     208.048
  O      101.026    -116.235     208.895
  C      103.242    -116.051     207.938
  O      104.118    -115.469     208.914
  C      102.959    -117.488     208.344
  O      104.122    -118.155     208.818
  C      101.889    -117.270     209.408
  N       99.433    -119.752     213.018
  C       99.899    -118.452     212.981
  N       99.732    -117.710     214.090
  N      100.469    -117.921     211.929
  C      100.549    -118.768     210.874
  C      100.141    -120.077     210.789
  C       99.517    -120.661     211.962
  O       99.109    -121.809     212.068
  N      100.454    -120.613     209.565
  C      101.078    -119.640     208.925
  N      101.161    -118.498     209.677
  O      101.333    -114.888     203.824
  O      101.136    -117.426     203.514
  H      104.803    -118.117     208.119
  H      101.410    -114.930     202.851
  H       99.008    -120.114     213.857
  H      101.500    -119.715     207.932
  H      102.308    -116.931     210.366
  H      102.562    -118.043     207.488
  H       99.269    -118.028     214.928
  H      103.690    -115.968     206.940
  H      100.026    -116.740     214.067
  H      101.937    -114.406     208.547
  H      100.076    -115.035     206.892
  H      101.548    -114.315     206.196
  P      105.319    -114.539     208.399
  C      105.758    -112.734     210.218
  O      106.127    -113.989     209.671
  O      104.557    -113.237     207.856
  O      106.156    -115.170     207.328
  H      105.034    -112.872     207.081
  H      106.387    -112.511     211.054
  H      104.738    -112.771     210.538
  H      105.871    -111.973     209.474

 6  7  8  9  10  11  12  13  14  15  26  29  33  34 0
 6-311+G(2d,p)
 ****
 36  38  39  40  41 0
 6-311+G(2d,p)
 ****
 1  2  3  4  5  16  17  18  19  20  21  22  23  24  25 0
 3-21G
 ****
 27  28  30  31  32  35  37  42  43  44  45  46  47 0
 3-21G
 ****
 48  49 0
 3-21G
 ****


