%nproc=1
%NoSave
%Mem=1900MB
#P OB98/GEN NMR

erre ene a

0 1
  C     -483.198     656.922     185.964
  O     -483.828     655.717     185.517
  P     -482.934     654.400     185.329
  C     -484.094     653.338     187.373
  O     -483.706     653.171     186.014
  C     -484.878     652.118     187.870
  O     -486.165     652.013     187.233
  C     -484.169     650.798     187.584
  O     -483.078     650.612     188.459
  C     -485.316     649.802     187.757
  O     -485.518     649.490     189.134
  C     -486.522     650.607     187.208
  N     -486.937     650.192     185.874
  C     -488.311     649.975     185.700
  O     -489.083     650.101     186.654
  N     -488.772     649.607     184.469
  C     -487.927     649.466     183.483
  N     -488.438     649.101     182.273
  C     -486.474     649.677     183.624
  C     -486.053     650.022     184.830
  O     -481.496     654.535     185.709
  O     -483.088     654.079     183.764
  H     -484.684     649.066     189.438
  H     -482.279     653.644     183.450
  H     -485.820     649.548     182.770
  H     -485.003     650.190     185.029
  H     -487.382     650.491     187.877
  H     -485.119     648.860     187.219
  H     -483.821     650.791     186.532
  H     -485.032     652.225     188.954
  H     -489.440     648.956     182.201
  H     -484.717     654.235     187.461
  H     -487.874     649.022     181.436
  H     -483.202     653.510     187.980
  P     -481.773     649.889     187.866
  C     -480.084     651.808     188.270
  O     -480.490     650.498     188.607
  O     -481.659     650.495     186.381
  O     -481.836     648.392     187.833
  H     -481.305     649.818     185.776
  H     -479.418     652.181     189.065
  H     -480.931     652.479     188.179
  H     -479.521     651.780     187.331
  H     -483.928     657.701     186.037
  H     -482.440     657.208     185.265
  H     -482.755     656.758     186.924

 3  4  5  6  7  8  9  10  11  12  13  23  27  28  29  30  32 0
 6-311+G(2d,p)
 ****
 34  35 0
 6-311+G(2d,p)
 ****
 1  2  14  15  16  17  18  19  20  21  22  24  25  26 0
 3-21G
 ****
 31  33  36  37  38  39  40  41  42  43  44  45  46 0
 3-21G
 ****


