%nproc=1
%NoSave
%Mem=1900MB
#P OB98/GEN NMR

erre ene a

0 1
  C       93.712      76.984      35.109
  O       92.459      76.685      35.690
  H       93.575      77.784      34.377
  H       94.109      76.105      34.594
  H       94.422      77.322      35.868
  P       92.402      75.648      36.911
  C       93.082      73.186      37.266
  O       92.808      74.214      36.324
  C       93.409      71.886      36.534
  O       94.502      72.095      35.612
  C       93.855      70.757      37.454
  O       92.754      70.182      38.130
  C       94.546      69.835      36.463
  O       93.589      69.034      35.753
  C       95.228      70.848      35.516
  N       96.646      71.038      35.815
  C       97.541      70.739      34.793
  O       97.193      70.303      33.696
  N       98.866      70.929      35.085
  C       99.376      71.271      36.303
  O      100.578      71.342      36.536
  C       98.386      71.551      37.354
  C       97.088      71.426      37.065
  O       91.147      75.668      37.718
  O       93.675      76.043      37.800
  H       93.111      68.515      36.429
  H       93.378      76.524      38.595
  H       99.530      70.705      34.362
  H       98.751      71.839      38.328
  H       96.344      71.621      37.828
  H       95.140      70.514      34.475
  H       95.240      69.150      36.949
  H       94.598      71.126      38.170
  H       92.528      71.589      35.950
  H       92.196      73.037      37.893
  H       93.919      73.497      37.900
  P       92.993      69.017      39.200
  C       94.318      66.816      39.279
  O       93.719      67.803      38.445
  O       91.798      68.635      40.008
  O       94.151      69.597      40.141
  H       93.820      69.662      41.057
  H       94.769      66.061      38.670
  H       93.569      66.373      39.901
  H       95.066      67.273      39.892

 6  7  8  9  10  11  12  13  14  15  16  26  31  32  33  34  35 0
 6-311+G(2d,p)
 ****
 36  37 0
 6-311+G(2d,p)
 ****
 1  2  3  4  5  17  18  19  20  21  22  23  24  25 0
 3-21G
 ****
 27  28  29  30  38  39  40  41  42  43  44  45 0
 3-21G
 ****


