%nproc=1
%NoSave
%Mem=1900MB
#P OB98/GEN NMR

erre ene a

0 1
  C     -272.992    -558.092    -497.673
  O     -273.727    -556.898    -497.873
  H     -272.407    -557.998    -496.752
  H     -272.311    -558.262    -498.509
  H     -273.675    -558.942    -497.574
  P     -274.571    -556.802    -499.235
  C     -275.855    -559.019    -498.730
  O     -274.929    -558.337    -499.564
  C     -277.072    -559.437    -499.548
  O     -276.678    -560.256    -500.672
  C     -278.090    -560.277    -498.770
  O     -278.918    -559.488    -497.921
  C     -278.874    -560.884    -499.918
  O     -279.767    -559.901    -500.476
  C     -277.730    -561.231    -500.914
  N     -277.225    -562.599    -500.749
  C     -278.054    -563.633    -501.200
  O     -279.160    -563.383    -501.692
  N     -277.632    -564.929    -501.048
  C     -276.476    -565.174    -500.511
  N     -276.113    -566.481    -500.372
  C     -275.567    -564.117    -500.043
  C     -275.997    -562.870    -500.190
  O     -273.469    -556.461    -500.343
  O     -275.740    -555.869    -499.219
  H     -280.062    -560.247    -501.336
  H     -273.871    -556.499    -501.247
  H     -274.615    -564.375    -499.586
  H     -275.379    -562.039    -499.861
  H     -278.069    -561.101    -501.949
  H     -279.487    -561.739    -499.618
  H     -277.604    -561.079    -498.214
  H     -277.537    -558.525    -499.956
  H     -276.785    -567.193    -500.650
  H     -276.153    -558.350    -497.917
  H     -275.323    -566.774    -499.807
  H     -275.381    -559.907    -498.298
  P     -279.410    -560.156    -496.546
  C     -277.314    -559.322    -495.239
  O     -278.093    -560.432    -495.662
  O     -279.871    -561.617    -496.992
  O     -280.510    -559.410    -495.840
  H     -280.671    -561.903    -496.510
  H     -276.480    -559.669    -494.666
  H     -277.915    -558.673    -494.637
  H     -276.960    -558.787    -496.096

 6  7  8  9  10  11  12  13  14  15  16  26  30  31  32  33  35 0
 6-311+G(2d,p)
 ****
 37  38 0
 6-311+G(2d,p)
 ****
 1  2  3  4  5  17  18  19  20  21  22  23  24  25 0
 3-21G
 ****
 27  28  29  34  36  39  40  41  42  43  44  45  46 0
 3-21G
 ****


