%nproc=1
%NoSave
%Mem=1900MB
#P OB98/GEN NMR

erre ene a

0 1
  C      138.111      34.739      23.399
  O      137.818      34.511      24.763
  H      137.824      35.762      23.145
  H      137.534      34.047      22.780
  H      139.180      34.613      23.204
  P      138.456      33.198      25.431
  C      136.570      31.717      24.432
  O      137.967      31.952      24.542
  C      136.311      30.316      23.887
  O      136.901      30.169      22.575
  C      136.886      29.192      24.743
  O      136.016      28.856      25.817
  C      136.953      28.067      23.724
  O      135.633      27.516      23.519
  C      137.409      28.810      22.459
  N      141.410      26.598      20.261
  C      140.082      26.216      20.275
  N      139.778      25.077      19.614
  N      139.137      26.883      20.882
  C      139.589      27.988      21.523
  C      140.879      28.468      21.587
  C      141.912      27.728      20.897
  O      143.100      28.030      20.846
  N      140.955      29.616      22.330
  C      139.716      29.820      22.731
  N      138.849      28.859      22.271
  O      137.616      33.049      26.788
  O      139.921      33.268      25.704
  H      135.666      26.997      22.695
  H      138.160      33.370      27.532
  H      142.099      26.042      19.786
  H      139.393      30.648      23.346
  H      136.984      28.378      21.547
  H      137.593      27.243      24.045
  H      140.461      24.503      19.144
  H      137.897      29.427      25.099
  H      138.810      24.779      19.607
  H      135.227      30.198      23.771
  H      136.136      32.459      23.754
  H      136.114      31.822      25.422
  P      136.655      28.199      27.133
  C      135.801      25.827      26.522
  O      136.926      26.649      26.799
  O      135.412      28.152      28.139
  O      137.805      28.940      27.722
  H      135.553      28.781      28.873
  H      136.130      24.829      26.319
  H      135.280      26.211      25.670
  H      135.146      25.822      27.368

 6  7  8  9  10  11  12  13  14  15  26  29  33  34 0
 6-311+G(2d,p)
 ****
 36  38  39  40  41 0
 6-311+G(2d,p)
 ****
 1  2  3  4  5  16  17  18  19  20  21  22  23  24  25 0
 3-21G
 ****
 27  28  30  31  32  35  37  42  43  44  45  46  47 0
 3-21G
 ****
 48  49 0
 3-21G
 ****


