%nproc=1
%NoSave
%Mem=1900MB
#P OB98/GEN NMR

erre ene a

0 1
  C     -550.500    -193.199     -68.161
  O     -551.102    -193.885     -67.086
  H     -551.283    -192.678     -68.718
  H     -550.002    -193.896     -68.836
  H     -549.785    -192.461     -67.788
  P     -550.212    -194.893     -66.209
  C     -550.715    -196.710     -67.950
  O     -549.692    -196.007     -67.254
  C     -550.157    -197.932     -68.677
  O     -549.641    -198.885     -67.711
  C     -551.190    -198.666     -69.543
  O     -550.627    -198.948     -70.825
  C     -551.444    -199.958     -68.781
  O     -551.925    -200.995     -69.630
  C     -550.072    -200.190     -68.136
  N     -550.122    -201.129     -67.021
  C     -549.615    -202.410     -67.262
  O     -549.192    -202.709     -68.378
  N     -549.635    -203.335     -66.246
  C     -550.164    -203.021     -65.103
  N     -550.159    -203.985     -64.143
  C     -550.747    -201.699     -64.823
  C     -550.690    -200.806     -65.811
  O     -550.895    -195.441     -64.999
  O     -548.882    -194.067     -65.874
  H     -551.203    -201.251     -70.248
  H     -548.432    -194.473     -65.090
  H     -551.186    -201.490     -63.853
  H     -551.088    -199.806     -65.687
  H     -549.352    -200.567     -68.875
  H     -552.198    -199.780     -68.001
  H     -552.112    -198.102     -69.686
  H     -549.296    -197.610     -69.278
  H     -549.746    -204.881     -64.377
  H     -551.192    -196.026     -68.660
  H     -550.549    -203.859     -63.219
  H     -551.461    -197.044     -67.218
  P     -551.020    -197.930     -72.009
  C     -553.334    -198.695     -72.876
  O     -552.618    -197.800     -72.042
  O     -550.669    -198.757     -73.333
  O     -550.276    -196.634     -71.949
  H     -549.815    -198.469     -73.692
  H     -554.382    -198.494     -72.798
  H     -553.140    -199.701     -72.569
  H     -553.020    -198.565     -73.891

 6  7  8  9  10  11  12  13  14  15  16  26  30  31  32  33  35 0
 6-311+G(2d,p)
 ****
 37  38 0
 6-311+G(2d,p)
 ****
 1  2  3  4  5  17  18  19  20  21  22  23  24  25 0
 3-21G
 ****
 27  28  29  34  36  39  40  41  42  43  44  45  46 0
 3-21G
 ****


