%nproc=1
%NoSave
%Mem=1900MB
#P OB98/GEN NMR

erre ene a

0 1
  C       -8.202     -57.855     219.412
  O       -6.962     -58.432     219.025
  P       -5.584     -57.903     219.658
  C       -4.641     -57.860     222.051
  O       -5.815     -57.814     221.244
  C       -4.667     -56.758     223.107
  O       -4.472     -55.480     222.455
  C       -5.986     -56.682     223.875
  O       -5.713     -56.319     225.232
  C       -6.737     -55.533     223.220
  O       -7.678     -54.941     224.133
  C       -5.583     -54.625     222.791
  N       -6.445     -49.868     221.051
  C       -6.104     -50.328     222.273
  N       -5.911     -51.606     222.669
  C       -6.062     -52.453     221.635
  C       -6.409     -52.130     220.333
  C       -6.610     -50.766     220.045
  N       -6.949     -50.299     218.798
  N       -6.503     -53.270     219.553
  C       -6.195     -54.255     220.370
  N       -5.912     -53.809     221.639
  O       -5.039     -56.662     219.039
  O       -4.575     -59.133     219.506
  H       -8.095     -54.188     223.668
  H       -3.681     -58.816     219.278
  H       -5.956     -49.571     223.039
  H       -6.175     -55.301     220.099
  H       -5.267     -53.959     223.605
  H       -7.300     -55.907     222.354
  H       -6.552     -57.622     223.840
  H       -3.828     -56.910     223.792
  H       -3.772     -57.716     221.401
  H       -6.953     -49.297     218.659
  H       -6.900     -50.944     218.016
  H       -4.563     -58.845     222.523
  P       -6.764     -56.860     226.331
  C       -7.559     -59.274     226.903
  O       -6.982     -58.403     225.958
  O       -7.979     -55.996     226.415
  O       -5.852     -56.873     227.647
  H       -4.900     -56.953     227.428
  H       -7.588     -60.282     226.481
  H       -8.584     -58.961     227.132
  H       -6.965     -59.290     227.823
  H       -8.999     -58.337     218.886
  H       -8.199     -56.811     219.176
  H       -8.341     -57.982     220.465

 3  4  5  6  7  8  9  10  11  12  22  25  29  30  31  32 0
 6-311+G(2d,p)
 ****
 33  36  37 0
 6-311+G(2d,p)
 ****
 1  2  13  14  15  16  17  18  19  20  21  23  24  26 0
 3-21G
 ****
 27  28  34  35  38  39  40  41  42  43  44  45  46  47  48 0
 3-21G
 ****


