%nproc=1
%NoSave
%Mem=1900MB
#P OB98/GEN NMR

erre ene a

0 1
  C      -43.175     270.365      58.793
  O      -43.479     271.670      59.238
  H      -42.489     270.433      57.940
  H      -44.089     269.856      58.464
  H      -42.691     269.786      59.587
  P      -44.345     271.805      60.587
  C      -45.554     274.037      60.008
  O      -44.585     273.377      60.815
  C      -45.749     275.487      60.469
  O      -44.654     276.289      59.946
  C      -47.064     276.107      59.994
  O      -47.573     276.943      61.045
  C      -46.641     276.974      58.824
  O      -47.552     278.054      58.580
  C      -45.228     277.401      59.231
  N      -44.424     277.771      58.074
  C      -44.807     278.930      57.395
  O      -45.784     279.577      57.765
  N      -44.112     279.302      56.258
  C      -43.170     278.529      55.809
  N      -42.538     278.929      54.668
  C      -42.774     277.258      56.453
  C      -43.437     276.955      57.572
  O      -43.300     271.424      61.738
  O      -45.580     270.973      60.635
  H      -47.156     278.645      57.900
  H      -43.753     270.991      62.489
  H      -42.010     276.636      56.027
  H      -43.219     276.037      58.119
  H      -45.274     278.255      59.923
  H      -46.607     276.368      57.905
  H      -47.819     275.371      59.722
  H      -45.673     275.509      61.572
  H      -42.846     279.795      54.251
  H      -46.505     273.505      60.094
  H      -41.825     278.383      54.200
  H      -45.232     274.012      58.964
  P      -49.134     276.769      61.399
  C      -49.743     279.182      62.173
  O      -49.497     277.837      62.557
  O      -49.185     275.361      62.158
  O      -50.028     276.804      60.205
  H      -49.608     274.701      61.584
  H      -49.968     279.765      63.041
  H      -50.572     279.214      61.497
  H      -48.874     279.580      61.691

 6  7  8  9  10  11  12  13  14  15  16  26  30  31  32  33  35 0
 6-311+G(2d,p)
 ****
 37  38 0
 6-311+G(2d,p)
 ****
 1  2  3  4  5  17  18  19  20  21  22  23  24  25 0
 3-21G
 ****
 27  28  29  34  36  39  40  41  42  43  44  45  46 0
 3-21G
 ****


