%nproc=1
%NoSave
%Mem=1900MB
#P OB98/GEN NMR

erre ene a

0 1
  C      278.025    -411.899     316.493
  O      279.059    -412.649     317.094
  H      278.353    -411.587     315.499
  H      277.824    -411.003     317.090
  H      277.112    -412.489     316.393
  P      278.742    -413.472     318.434
  C      280.170    -411.758     319.725
  O      279.924    -413.132     319.466
  C      281.445    -411.578     320.559
  O      282.596    -411.604     319.663
  C      281.496    -410.257     321.344
  O      282.258    -410.501     322.539
  C      282.279    -409.369     320.396
  O      282.796    -408.231     321.060
  C      283.309    -410.364     319.853
  N      283.941    -409.898     318.615
  C      284.921    -408.923     318.750
  O      285.244    -408.427     319.835
  N      285.502    -408.491     317.590
  C      285.157    -408.886     316.330
  O      285.688    -408.440     315.317
  C      284.082    -409.887     316.246
  C      283.531    -410.346     317.376
  O      278.476    -414.929     318.250
  O      277.488    -412.713     319.076
  H      283.419    -408.506     321.765
  H      276.935    -413.343     319.579
  H      286.222    -407.790     317.671
  H      283.772    -410.213     315.261
  H      282.740    -411.083     317.347
  H      284.105    -410.543     320.591
  H      281.637    -409.006     319.583
  H      280.513    -409.859     321.590
  H      281.552    -412.440     321.232
  H      279.310    -411.356     320.278
  H      280.270    -411.213     318.779
  P      281.768    -409.977     323.977
  C      284.049    -409.094     324.814
  O      283.007    -410.054     325.004
  O      280.518    -410.631     324.477
  O      281.544    -408.404     323.785
  H      280.859    -408.087     324.407
  H      284.811    -409.244     325.551
  H      283.647    -408.107     324.912
  H      284.469    -409.212     323.837

 6  7  8  9  10  11  12  13  14  15  16  26  31  32  33  34  35 0
 6-311+G(2d,p)
 ****
 36  37 0
 6-311+G(2d,p)
 ****
 1  2  3  4  5  17  18  19  20  21  22  23  24  25 0
 3-21G
 ****
 27  28  29  30  38  39  40  41  42  43  44  45 0
 3-21G
 ****


