%nproc=1
%NoSave
%Mem=1900MB
#P OB98/GEN NMR

erre ene a

0 1
  C     -400.248     213.930    -229.132
  O     -398.975     213.364    -229.367
  H     -400.652     214.351    -230.057
  H     -400.922     213.143    -228.782
  H     -400.184     214.707    -228.365
  P     -397.827     214.362    -229.882
  C     -396.965     213.037    -231.946
  O     -396.733     213.431    -230.602
  C     -395.674     212.507    -232.557
  O     -394.616     213.482    -232.413
  C     -395.150     211.226    -231.906
  O     -395.811     210.069    -232.388
  C     -393.700     211.265    -232.357
  O     -393.604     210.845    -233.729
  C     -393.364     212.754    -232.227
  N     -389.042     213.914    -229.746
  C     -389.282     213.577    -231.035
  N     -390.464     213.277    -231.616
  C     -391.461     213.358    -230.723
  C     -391.372     213.677    -229.378
  C     -390.087     213.975    -228.892
  N     -389.839     214.303    -227.578
  N     -392.616     213.615    -228.777
  C     -393.447     213.295    -229.750
  N     -392.797     213.115    -230.940
  O     -397.088     214.817    -228.537
  O     -398.293     215.521    -230.698
  H     -393.964     209.939    -233.771
  H     -396.600     215.648    -228.684
  H     -388.410     213.545    -231.683
  H     -394.517     213.182    -229.642
  H     -392.673     213.099    -233.007
  H     -393.056     210.601    -231.773
  H     -395.192     211.287    -230.812
  H     -395.846     212.354    -233.633
  H     -397.311     213.902    -232.523
  H     -388.868     214.322    -227.294
  H     -390.586     214.204    -226.903
  H     -397.744     212.266    -231.967
  P     -397.037     209.505    -231.518
  C     -396.258     207.278    -230.427
  O     -396.885     207.914    -231.537
  O     -398.305     209.778    -232.453
  O     -397.186     210.132    -230.168
  H     -399.115     209.867    -231.928
  H     -396.233     206.221    -230.589
  H     -396.811     207.489    -229.536
  H     -395.259     207.647    -230.322

 6  7  8  9  10  11  12  13  14  15  25  28  32  33  34  35 0
 6-311+G(2d,p)
 ****
 36  39  40 0
 6-311+G(2d,p)
 ****
 1  2  3  4  5  16  17  18  19  20  21  22  23  24 0
 3-21G
 ****
 26  27  29  30  31  37  38  41  42  43  44  45  46  47 0
 3-21G
 ****
 48 0
 3-21G
 ****


