%nproc=1
%NoSave
%Mem=1900MB
#P OB98/GEN NMR

erre ene a

0 1
  C      -23.039     -61.575      44.494
  O      -23.982     -62.420      43.864
  H      -22.494     -60.996      43.746
  H      -23.572     -60.886      45.155
  H      -22.340     -62.168      45.092
  P      -23.395     -63.533      42.869
  C      -23.588     -62.113      40.705
  O      -22.727     -62.733      41.648
  C      -22.771     -61.315      39.693
  O      -22.053     -60.255      40.358
  C      -21.712     -62.124      38.949
  O      -22.275     -62.872      37.882
  C      -20.816     -61.008      38.433
  O      -21.409     -60.407      37.266
  C      -20.836     -60.014      39.605
  N      -16.015     -58.550      40.497
  C      -16.912     -58.175      39.562
  N      -18.185     -58.593      39.400
  C      -18.512     -59.485      40.350
  C      -17.715     -59.949      41.382
  C      -16.403     -59.449      41.438
  N      -15.470     -59.894      42.361
  N      -18.397     -60.873      42.150
  C      -19.578     -60.976      41.579
  N      -19.698     -60.153      40.493
  O      -24.720     -64.170      42.228
  O      -22.536     -64.571      43.511
  H      -20.779     -59.733      36.947
  H      -24.947     -64.989      42.709
  H      -16.562     -57.442      38.842
  H      -20.370     -61.633      41.912
  H      -20.868     -58.973      39.263
  H      -19.819     -61.356      38.147
  H      -21.137     -62.759      39.631
  H      -23.471     -60.848      38.988
  H      -24.276     -61.439      41.226
  H      -14.512     -59.839      42.028
  H      -15.736     -60.741      42.849
  H      -24.168     -62.889      40.197
  P      -21.982     -64.450      37.844
  C      -19.998     -64.177      36.206
  O      -20.423     -64.615      37.489
  O      -22.728     -64.917      36.506
  O      -22.462     -65.218      39.026
  H      -23.365     -65.626      36.715
  H      -18.946     -64.344      36.103
  H      -20.206     -63.133      36.099
  H      -20.522     -64.725      35.451

 6  7  8  9  10  11  12  13  14  15  25  28  32  33  34  35 0
 6-311+G(2d,p)
 ****
 36  39  40 0
 6-311+G(2d,p)
 ****
 1  2  3  4  5  16  17  18  19  20  21  22  23  24 0
 3-21G
 ****
 26  27  29  30  31  37  38  41  42  43  44  45  46  47  48 0
 3-21G
 ****


