%nproc=1
%NoSave
%Mem=1900MB
#P OB98/GEN NMR

erre ene a

0 1
  C      209.573    -252.912     110.571
  O      209.510    -252.894     109.157
  H      210.338    -253.629     110.876
  H      208.616    -253.213     111.001
  H      209.855    -251.922     110.942
  P      208.281    -252.129     108.466
  C      209.599    -249.927     108.222
  O      208.485    -250.576     108.828
  C      209.200    -248.573     107.636
  O      208.162    -248.729     106.648
  C      208.627    -247.599     108.655
  O      209.541    -247.152     109.629
  C      207.933    -246.584     107.758
  O      208.835    -245.605     107.246
  C      207.422    -247.488     106.610
  N      205.981    -247.715     106.681
  C      205.188    -246.808     105.990
  O      205.633    -245.851     105.366
  N      203.836    -247.026     106.065
  C      203.223    -248.001     106.788
  O      202.004    -248.129     106.835
  C      204.117    -248.906     107.531
  C      205.433    -248.728     107.445
  O      206.917    -252.656     108.803
  O      208.622    -252.183     106.904
  H      209.558    -246.088     106.802
  H      207.830    -251.966     106.356
  H      203.241    -246.386     105.560
  H      203.662    -249.688     108.125
  H      206.114    -249.383     107.980
  H      207.644    -247.025     105.638
  H      207.137    -246.050     108.282
  H      207.830    -248.115     109.208
  H      210.077    -248.150     107.132
  H      209.963    -250.572     107.415
  H      210.395    -249.800     108.960
  P      209.214    -247.076     111.185
  C      209.805    -249.455     112.096
  O      208.794    -248.541     111.690
  O      208.393    -245.914     111.643
  O      210.693    -246.912     111.819
  H      210.601    -246.345     112.610
  H      209.352    -250.376     112.400
  H      210.353    -249.040     112.916
  H      210.470    -249.638     111.278

 6  7  8  9  10  11  12  13  14  15  16  26  31  32  33  34  35 0
 6-311+G(2d,p)
 ****
 36  37 0
 6-311+G(2d,p)
 ****
 1  2  3  4  5  17  18  19  20  21  22  23  24  25 0
 3-21G
 ****
 27  28  29  30  38  39  40  41  42  43  44  45 0
 3-21G
 ****


