%nproc=1
%NoSave
%Mem=1900MB
#P OB98/GEN NMR

erre ene a

0 1
  C      -98.302      37.463      76.757
  O      -97.325      38.411      76.368
  H      -98.643      37.705      77.767
  H      -97.870      36.458      76.761
  H      -99.156      37.502      76.076
  P      -96.712      38.243      74.894
  C      -99.120      38.475      73.971
  O      -97.937      37.688      74.019
  C      -99.599      38.632      72.528
  O      -99.964      37.355      71.974
  C     -100.827      39.520      72.369
  O     -100.467      40.891      72.382
  C     -101.318      39.078      70.998
  O     -100.537      39.721      69.971
  C     -101.027      37.566      71.007
  N     -103.655      33.323      69.791
  C     -102.670      33.989      69.145
  N     -102.050      35.131      69.504
  C     -102.537      35.593      70.668
  C     -103.540      35.024      71.441
  C     -104.103      33.828      70.964
  N     -105.100      33.148      71.632
  N     -103.778      35.781      72.570
  C     -102.897      36.762      72.506
  N     -102.148      36.711      71.356
  O      -95.436      37.480      74.807
  O      -96.624      39.772      74.425
  H     -100.816      40.654      69.931
  H      -97.398      40.272      74.739
  H     -102.336      33.539      68.213
  H     -102.752      37.516      73.269
  H     -100.663      37.218      70.034
  H     -102.361      39.351      70.821
  H     -101.593      39.283      73.117
  H      -98.758      39.017      71.935
  H      -98.941      39.459      74.413
  H     -105.562      32.401      71.139
  H     -105.517      33.589      72.438
  H      -99.881      37.960      74.567
  P     -101.467      41.994      72.978
  C     -100.458      41.970      75.343
  O     -101.603      41.685      74.549
  O     -102.765      42.122      72.256
  O     -100.630      43.354      72.948
  H     -101.207      44.102      72.705
  H     -100.663      41.727      76.365
  H     -100.220      43.010      75.265
  H      -99.630      41.387      74.997

 6  7  8  9  10  11  12  13  14  15  25  28  32  33  34  35 0
 6-311+G(2d,p)
 ****
 36  39  40 0
 6-311+G(2d,p)
 ****
 1  2  3  4  5  16  17  18  19  20  21  22  23  24 0
 3-21G
 ****
 26  27  29  30  31  37  38  41  42  43  44  45  46  47 0
 3-21G
 ****
 48 0
 3-21G
 ****


