%nproc=1
%NoSave
%Mem=1900MB
#P OB98/GEN NMR

erre ene a

0 1
  C     -724.420     541.516     459.378
  O     -724.697     541.975     458.066
  P     -726.207     542.011     457.523
  C     -727.233     542.876     455.320
  O     -726.185     543.032     456.280
  C     -727.965     544.209     455.114
  O     -728.586     544.646     456.347
  C     -727.077     545.359     454.662
  O     -726.755     545.243     453.289
  C     -727.934     546.557     455.016
  O     -728.901     546.819     453.999
  C     -728.626     546.089     456.324
  N     -728.014     546.666     457.520
  C     -728.116     548.054     457.640
  O     -728.677     548.719     456.767
  N     -727.560     548.663     458.745
  C     -726.915     547.948     459.615
  N     -726.372     548.610     460.682
  C     -726.754     546.483     459.502
  C     -727.322     545.925     458.434
  O     -727.257     542.272     458.552
  O     -726.361     540.592     456.807
  H     -728.397     546.891     453.156
  H     -726.455     539.855     457.468
  H     -726.215     545.925     460.249
  H     -727.248     544.842     458.265
  H     -729.683     546.377     456.318
  H     -727.335     547.471     455.145
  H     -726.153     545.383     455.277
  H     -728.764     544.042     454.373
  H     -726.480     549.612     460.704
  H     -727.939     542.139     455.702
  H     -725.827     548.153     461.392
  H     -726.811     542.514     454.384
  P     -725.806     546.325     452.590
  C     -724.140     546.351     450.629
  O     -724.851     545.538     451.565
  O     -725.106     547.263     453.525
  O     -726.802     547.125     451.622
  H     -726.616     548.082     451.708
  H     -723.305     545.759     450.228
  H     -723.758     547.246     451.096
  H     -724.813     546.619     449.818
  H     -723.366     541.565     459.558
  H     -724.752     540.504     459.479
  H     -724.932     542.132     460.087

 3  4  5  6  7  8  9  10  11  12  13  23  27  28  29  30  32 0
 6-311+G(2d,p)
 ****
 34  35 0
 6-311+G(2d,p)
 ****
 1  2  14  15  16  17  18  19  20  21  22  24  25  26 0
 3-21G
 ****
 31  33  36  37  38  39  40  41  42  43  44  45  46 0
 3-21G
 ****


