%nproc=1
%NoSave
%Mem=1900MB
#P OB98/GEN NMR

erre ene a

0 1
  C       33.208      65.503     -79.465
  O       34.052      65.048     -78.432
  H       33.720      66.306     -80.002
  H       32.281      65.906     -79.051
  H       32.988      64.697     -80.168
  P       33.535      63.891     -77.447
  C       32.325      65.754     -76.162
  O       33.196      64.636     -76.059
  C       32.265      66.527     -74.844
  O       31.656      65.694     -73.820
  C       33.641      66.968     -74.323
  O       33.590      68.339     -73.924
  C       33.857      66.090     -73.100
  O       34.760      66.659     -72.157
  C       32.415      65.907     -72.617
  N       32.288      64.803     -71.676
  C       32.490      65.115     -70.328
  O       32.752      66.271     -69.992
  N       32.445      64.106     -69.402
  C       32.263      62.884     -69.791
  N       32.258      61.927     -68.825
  C       32.073      62.505     -71.207
  C       32.093      63.505     -72.087
  O       34.449      62.719     -77.327
  O       32.084      63.501     -77.998
  H       34.318      67.424     -71.727
  H       31.858      62.593     -77.688
  H       31.930      61.471     -71.480
  H       31.964      63.325     -73.149
  H       32.043      66.821     -72.137
  H       34.269      65.122     -73.419
  H       34.438      66.839     -75.054
  H       31.596      67.387     -74.976
  H       32.398      62.230     -67.869
  H       31.327      65.396     -76.442
  H       32.150      60.942     -69.010
  H       32.703      66.417     -76.947
  P       34.047      69.414     -75.024
  C       36.464      69.245     -74.096
  O       35.407      70.096     -74.514
  O       32.954      70.574     -74.883
  O       34.089      68.865     -76.411
  H       32.378      70.583     -75.670
  H       37.298      69.839     -73.786
  H       36.757      68.615     -74.909
  H       36.133      68.640     -73.278

 6  7  8  9  10  11  12  13  14  15  16  26  30  31  32  33  35 0
 6-311+G(2d,p)
 ****
 37  38 0
 6-311+G(2d,p)
 ****
 1  2  3  4  5  17  18  19  20  21  22  23  24  25 0
 3-21G
 ****
 27  28  29  34  36  39  40  41  42  43  44  45  46 0
 3-21G
 ****


