%nproc=1
%NoSave
%Mem=1900MB
#P OB98/GEN NMR

erre ene a

0 1
  C      431.043    -266.044      70.956
  O      431.186    -266.330      72.337
  P      432.055    -267.575      72.837
  C      433.310    -266.482      74.867
  O      432.346    -267.399      74.393
  C      433.590    -266.778      76.348
  O      432.544    -266.218      77.169
  C      433.657    -268.275      76.622
  O      434.999    -268.732      76.575
  C      433.024    -268.388      77.995
  O      433.979    -268.074      79.020
  C      431.928    -267.296      77.926
  N      430.644    -267.638      77.282
  C      429.616    -268.177      78.048
  O      429.691    -268.369      79.261
  N      428.481    -268.524      77.357
  C      428.267    -268.335      76.017
  O      427.366    -268.861      75.381
  C      429.275    -267.520      75.330
  C      430.407    -267.232      75.979
  O      433.480    -267.307      72.158
  O      431.511    -268.921      72.482
  H      434.731    -268.688      78.920
  H      433.581    -267.840      71.346
  H      427.781    -269.045      77.879
  H      429.087    -267.225      74.311
  H      431.184    -266.661      75.474
  H      431.695    -266.913      78.927
  H      432.696    -269.403      78.193
  H      433.033    -268.819      75.903
  H      434.532    -266.293      76.635
  H      432.949    -265.459      74.743
  H      434.234    -266.580      74.285
  P      435.387    -269.962      75.625
  C      437.783    -269.445      74.867
  O      436.968    -270.147      75.790
  O      434.898    -269.861      74.219
  O      434.760    -271.227      76.386
  H      433.889    -271.451      75.988
  H      438.822    -269.504      75.201
  H      437.483    -268.393      74.814
  H      437.691    -269.903      73.879
  H      430.428    -265.177      70.833
  H      430.587    -266.878      70.464
  H      432.006    -265.861      70.528

 3  4  5  6  7  8  9  10  11  12  13  23  28  29  30  31  32 0
 6-311+G(2d,p)
 ****
 33  34 0
 6-311+G(2d,p)
 ****
 1  2  14  15  16  17  18  19  20  21  22  24  25  26  27 0
 3-21G
 ****
 35  36  37  38  39  40  41  42  43  44  45 0
 3-21G
 ****


