%nproc=1
%NoSave
%Mem=1900MB
#P OB98/GEN NMR

erre ene a

0 1
  C      -11.575     662.100     518.533
  O      -10.506     662.292     519.459
  P       -9.074     662.883     519.091
  C       -9.205     665.201     520.304
  O       -8.638     663.898     520.253
  C       -9.001     665.884     521.675
  O       -9.853     665.258     522.664
  C       -7.557     665.685     522.158
  O       -6.538     666.553     521.701
  C       -7.667     665.608     523.679
  O       -7.458     666.872     524.305
  C       -9.105     665.125     523.898
  N       -9.151     661.978     527.936
  C       -8.979     663.352     527.906
  N       -8.766     663.963     529.088
  N       -9.028     664.044     526.803
  C       -9.183     663.308     525.676
  C       -9.331     661.943     525.579
  C       -9.340     661.170     526.820
  O       -9.481     659.964     526.907
  N       -9.431     661.534     524.281
  C       -9.322     662.643     523.582
  N       -9.169     663.755     524.397
  O       -8.918     663.337     517.687
  O       -8.094     661.617     519.308
  H       -6.521     667.126     524.163
  H       -7.365     661.709     518.650
  H       -9.133     661.484     528.806
  H       -9.334     662.716     522.501
  H       -9.620     665.745     524.640
  H       -6.904     664.928     524.082
  H       -8.598     663.464     529.946
  H       -7.245     664.689     521.829
  H       -8.430     664.922     529.038
  H       -9.306     666.935     521.635
  H      -10.274     665.092     520.102
  H       -8.794     665.836     519.523
  P       -4.965     666.346     521.896
  C       -4.337     666.203     519.422
  O       -4.199     666.945     520.620
  O       -4.738     664.769     521.714
  O       -4.415     666.812     523.221
  H       -3.873     664.496     522.080
  H       -3.572     666.517     518.717
  H       -5.320     666.401     518.978
  H       -4.232     665.131     519.602
  H      -12.421     661.690     519.045
  H      -11.263     661.426     517.763
  H      -11.843     663.040     518.098

 3  4  5  6  7  8  9  10  11  12  23  26  30  31 0
 6-311+G(2d,p)
 ****
 33  35  36  37  38 0
 6-311+G(2d,p)
 ****
 1  2  13  14  15  16  17  18  19  20  21  22  24  25 0
 3-21G
 ****
 27  28  29  32  34  39  40  41  42  43  44  45  46  47  48  49 0
 3-21G
 ****


