%nproc=1
%NoSave
%Mem=1900MB
#P OB98/GEN NMR

erre ene a

0 1
  C      475.986     216.138     509.221
  O      475.317     217.372     509.378
  H      477.069     216.283     509.261
  H      475.688     215.471     510.035
  H      475.707     215.679     508.268
  P      475.704     218.529     508.334
  C      473.629     218.041     506.862
  O      475.043     218.116     506.931
  C      473.165     218.177     505.418
  O      473.571     219.451     504.880
  C      473.736     217.136     504.463
  O      473.063     215.891     504.570
  C      473.469     217.807     503.123
  O      472.096     217.596     502.739
  C      473.702     219.291     503.443
  N      476.278     222.040     499.952
  C      474.962     221.742     500.075
  N      474.352     221.000     501.018
  C      475.240     220.549     501.921
  C      476.608     220.769     501.928
  C      477.130     221.550     500.881
  N      478.474     221.833     500.758
  N      477.197     220.164     503.018
  C      476.201     219.586     503.660
  N      474.999     219.786     503.033
  O      477.272     218.299     508.087
  O      475.423     219.922     508.789
  H      471.951     218.108     501.922
  H      477.704     219.167     507.969
  H      474.314     222.164     499.310
  H      476.304     219.023     504.578
  H      472.934     219.927     502.982
  H      474.096     217.423     502.315
  H      474.817     217.022     504.601
  H      472.067     218.146     505.410
  H      473.192     218.849     507.458
  H      478.759     222.550     500.109
  H      479.102     221.470     501.464
  H      473.306     217.081     507.277
  P      473.747     214.616     503.868
  C      475.039     213.877     505.995
  O      475.122     214.377     504.667
  O      474.238     215.196     502.461
  O      472.862     213.430     503.710
  H      474.301     214.472     501.807
  H      476.024     213.769     506.398
  H      474.551     212.925     505.988
  H      474.480     214.560     506.599

 6  7  8  9  10  11  12  13  14  15  25  28  32  33  34  35 0
 6-311+G(2d,p)
 ****
 36  39  40 0
 6-311+G(2d,p)
 ****
 1  2  3  4  5  16  17  18  19  20  21  22  23  24 0
 3-21G
 ****
 26  27  29  30  31  37  38  41  42  43  44  45  46  47  48 0
 3-21G
 ****


