%nproc=1
%NoSave
%Mem=1900MB
#P OB98/GEN NMR

erre ene a

0 1
  C      274.969      -3.727     -25.431
  O      274.558      -3.362     -26.734
  H      274.333      -3.215     -24.705
  H      276.007      -3.420     -25.269
  H      274.872      -4.808     -25.289
  P      275.249      -4.134     -27.955
  C      276.884      -2.118     -28.350
  O      276.721      -3.513     -28.138
  C      278.320      -1.705     -28.030
  O      278.687      -2.087     -26.690
  C      279.364      -2.384     -28.898
  O      279.364      -1.913     -30.227
  C      280.629      -2.048     -28.123
  O      281.057      -0.705     -28.388
  C      280.136      -2.188     -26.661
  N      280.580      -3.425     -26.037
  C      281.960      -3.670     -26.083
  O      282.715      -2.859     -26.618
  N      282.437      -4.841     -25.549
  C      281.620      -5.681     -24.995
  N      282.155      -6.825     -24.494
  C      280.164      -5.451     -24.903
  C      279.718      -4.318     -25.442
  O      274.463      -3.557     -29.223
  O      275.247      -5.624     -27.850
  H      281.662      -0.462     -27.661
  H      274.459      -2.587     -29.270
  H      279.522      -6.175     -24.424
  H      278.664      -4.072     -25.418
  H      280.499      -1.350     -26.052
  H      281.461      -2.705     -28.388
  H      279.231      -3.475     -28.868
  H      278.385      -0.612     -28.104
  H      283.155      -6.958     -24.595
  H      276.174      -1.544     -27.746
  H      281.613      -7.565     -24.072
  H      276.660      -1.915     -29.404
  P      279.875      -2.846     -31.425
  C      282.145      -1.636     -31.327
  O      281.477      -2.893     -31.305
  O      279.367      -2.479     -32.777
  O      279.459      -4.319     -30.949
  H      279.855      -4.601     -30.106
  H      283.200      -1.791     -31.241
  H      281.805      -1.037     -30.508
  H      281.932      -1.135     -32.248

 6  7  8  9  10  11  12  13  14  15  16  26  30  31  32  33  35 0
 6-311+G(2d,p)
 ****
 37  38 0
 6-311+G(2d,p)
 ****
 1  2  3  4  5  17  18  19  20  21  22  23  24  25 0
 3-21G
 ****
 27  28  29  34  36  39  40  41  42  43  44  45  46 0
 3-21G
 ****


