%nproc=1
%NoSave
%Mem=1900MB
#P OB98/GEN NMR

erre ene a

0 1
  C     -220.527    -121.705     -60.226
  O     -220.049    -122.575     -59.195
  P     -218.521    -123.053     -59.320
  C     -219.234    -125.277     -60.458
  O     -218.432    -124.106     -60.527
  C     -219.682    -125.713     -61.857
  O     -218.571    -125.942     -62.741
  C     -220.492    -127.005     -61.854
  O     -221.829    -126.740     -61.472
  C     -220.358    -127.454     -63.303
  O     -221.330    -126.802     -64.148
  C     -218.937    -126.997     -63.669
  N     -217.190    -131.169     -65.965
  C     -218.343    -130.441     -66.202
  N     -219.129    -130.877     -67.208
  N     -218.694    -129.388     -65.511
  C     -217.808    -129.065     -64.539
  C     -216.620    -129.687     -64.226
  C     -216.246    -130.855     -64.992
  O     -215.227    -131.517     -64.838
  N     -215.962    -129.035     -63.212
  C     -216.815    -128.099     -62.831
  N     -217.921    -128.033     -63.646
  O     -218.306    -123.947     -58.009
  O     -217.549    -121.924     -59.383
  H     -221.122    -126.995     -65.081
  H     -217.710    -123.484     -57.389
  H     -216.973    -131.976     -66.521
  H     -216.669    -127.432     -61.997
  H     -218.903    -126.561     -64.676
  H     -220.529    -128.528     -63.416
  H     -218.924    -131.681     -67.780
  H     -220.024    -127.741     -61.187
  H     -219.977    -130.357     -67.403
  H     -220.291    -124.898     -62.274
  H     -220.107    -125.093     -59.829
  H     -218.655    -126.070     -59.969
  P     -222.229    -126.969     -59.935
  C     -222.673    -129.508     -60.272
  O     -221.943    -128.507     -59.587
  O     -223.830    -126.870     -59.961
  O     -221.640    -125.977     -58.990
  H     -224.131    -126.327     -59.204
  H     -222.055    -130.407     -60.342
  H     -222.951    -129.190     -61.281
  H     -223.579    -129.741     -59.704
  H     -221.550    -121.456     -60.037
  H     -220.449    -122.197     -61.173
  H     -219.939    -120.811     -60.239

 3  4  5  6  7  8  9  10  11  12  23  26  30  31 0
 6-311+G(2d,p)
 ****
 33  35  36  37  38 0
 6-311+G(2d,p)
 ****
 1  2  13  14  15  16  17  18  19  20  21  22  24  25 0
 3-21G
 ****
 27  28  29  32  34  39  40  41  42  43  44  45  46  47  48  49 0
 3-21G
 ****


