%nproc=1
%NoSave
%Mem=1900MB
#P OB98/GEN NMR

erre ene a

0 1
  C     -643.563     -33.462    -532.048
  O     -642.438     -33.861    -531.295
  H     -643.451     -32.411    -532.316
  H     -644.479     -33.578    -531.461
  H     -643.634     -34.050    -532.968
  P     -642.386     -35.356    -530.716
  C     -641.624     -34.963    -528.279
  O     -641.243     -35.376    -529.591
  C     -640.524     -34.090    -527.662
  O     -639.256     -34.742    -527.912
  C     -640.474     -32.681    -528.277
  O     -640.520     -31.646    -527.305
  C     -639.247     -32.744    -529.189
  O     -638.628     -31.496    -529.424
  C     -638.355     -33.782    -528.498
  N     -637.409     -34.435    -529.390
  C     -636.212     -33.779    -529.651
  O     -635.877     -32.697    -529.174
  N     -635.356     -34.421    -530.514
  C     -635.578     -35.620    -531.123
  O     -634.771     -36.148    -531.881
  C     -636.870     -36.257    -530.824
  C     -637.713     -35.651    -529.987
  O     -642.280     -36.441    -531.735
  O     -643.735     -35.487    -529.862
  H     -639.313     -30.881    -529.757
  H     -644.394     -35.999    -530.370
  H     -634.483     -33.956    -530.704
  H     -637.085     -37.207    -531.301
  H     -638.673     -36.091    -529.745
  H     -637.784     -33.319    -527.689
  H     -639.563     -33.134    -530.159
  H     -641.360     -32.491    -528.895
  H     -640.671     -34.052    -526.576
  H     -641.786     -35.858    -527.679
  H     -642.561     -34.394    -528.335
  P     -641.753     -30.642    -527.100
  C     -640.671     -28.515    -526.012
  O     -641.427     -29.705    -525.842
  O     -643.102     -31.270    -527.145
  O     -641.626     -29.648    -528.361
  H     -642.540     -29.383    -528.600
  H     -640.557     -28.027    -525.067
  H     -641.180     -27.863    -526.691
  H     -639.706     -28.758    -526.406

 6  7  8  9  10  11  12  13  14  15  16  26  31  32  33  34  35 0
 6-311+G(2d,p)
 ****
 36  37 0
 6-311+G(2d,p)
 ****
 1  2  3  4  5  17  18  19  20  21  22  23  24  25 0
 3-21G
 ****
 27  28  29  30  38  39  40  41  42  43  44  45 0
 3-21G
 ****


