%nproc=1
%NoSave
%Mem=1900MB
#P OB98/GEN NMR

erre ene a

0 1
  C     -198.742     227.226     123.133
  O     -198.415     227.158     124.510
  P     -198.623     225.762     125.270
  C     -200.958     226.504     126.129
  O     -200.201     225.521     125.437
  C     -202.355     225.978     126.465
  O     -203.099     227.000     127.185
  C     -203.181     225.602     125.232
  O     -204.029     224.486     125.551
  C     -204.078     226.805     125.025
  O     -205.255     226.463     124.294
  C     -204.330     227.226     126.472
  N     -208.288     230.365     126.579
  C     -208.253     228.993     126.729
  N     -209.446     228.369     126.834
  N     -207.149     228.297     126.776
  C     -206.032     229.055     126.652
  C     -205.940     230.423     126.514
  C     -207.172     231.178     126.449
  O     -207.271     232.391     126.290
  N     -204.635     230.835     126.450
  C     -203.934     229.718     126.507
  N     -204.739     228.608     126.591
  O     -198.134     226.092     126.760
  O     -197.856     224.620     124.694
  H     -205.761     225.837     124.848
  H     -197.258     225.690     126.915
  H     -209.167     230.856     126.537
  H     -202.853     229.652     126.465
  H     -205.104     226.606     126.943
  H     -203.542     227.580     124.467
  H     -210.334     228.840     126.738
  H     -202.587     225.363     124.342
  H     -209.450     227.359     126.900
  H     -202.253     225.121     127.141
  H     -201.052     227.389     125.498
  H     -200.433     226.791     127.046
  P     -204.147     223.347     124.423
  C     -206.571     223.918     123.672
  O     -205.195     223.902     123.350
  O     -204.946     222.178     125.165
  O     -202.835     222.886     123.879
  H     -204.740     221.315     124.760
  H     -206.921     224.955     123.684
  H     -206.778     223.462     124.643
  H     -207.122     223.367     122.903
  H     -198.551     228.214     122.769
  H     -199.777     226.991     123.000
  H     -198.145     226.524     122.589

 3  4  5  6  7  8  9  10  11  12  23  26  30  31 0
 6-311+G(2d,p)
 ****
 33  35  36  37  38 0
 6-311+G(2d,p)
 ****
 1  2  13  14  15  16  17  18  19  20  21  22  24  25 0
 3-21G
 ****
 27  28  29  32  34  39  40  41  42  43  44  45  46  47  48  49 0
 3-21G
 ****


