%nproc=1
%NoSave
%Mem=1900MB
#P OB98/GEN NMR

erre ene a

0 1
  C     -590.492      23.548     170.847
  O     -591.763      23.841     170.285
  H     -589.719      23.954     170.189
  H     -590.345      22.467     170.939
  H     -590.402      24.020     171.828
  P     -593.052      23.128     170.926
  C     -593.660      22.380     168.526
  O     -593.467      21.977     169.882
  C     -593.812      21.158     167.608
  O     -592.606      20.371     167.621
  C     -594.913      20.201     168.041
  O     -596.222      20.717     167.890
  C     -594.528      18.908     167.334
  O     -595.019      18.827     165.999
  C     -592.978      19.010     167.321
  N     -592.360      18.064     168.242
  C     -591.599      17.060     167.655
  O     -591.456      16.936     166.435
  N     -591.032      16.154     168.515
  C     -591.195      16.138     169.875
  O     -590.690      15.278     170.591
  C     -592.028      17.210     170.435
  C     -592.572      18.109     169.605
  O     -594.180      24.043     171.301
  O     -592.460      22.303     172.160
  H     -595.967      19.080     166.034
  H     -593.172      22.036     172.790
  H     -590.465      15.431     168.109
  H     -592.187      17.226     171.506
  H     -593.197      18.911     169.994
  H     -592.595      18.797     166.316
  H     -594.899      18.035     167.870
  H     -594.799      20.010     169.116
  H     -593.983      21.516     166.587
  H     -592.772      22.943     168.224
  H     -594.538      23.025     168.453
  P     -597.240      20.905     169.100
  C     -599.254      20.742     167.459
  O     -598.664      20.286     168.676
  O     -597.226      22.237     169.791
  O     -596.695      19.813     170.153
  H     -596.831      20.166     171.056
  H     -600.191      20.247     167.309
  H     -598.600      20.523     166.641
  H     -599.414      21.799     167.514

 6  7  8  9  10  11  12  13  14  15  16  26  31  32  33  34  35 0
 6-311+G(2d,p)
 ****
 36  37 0
 6-311+G(2d,p)
 ****
 1  2  3  4  5  17  18  19  20  21  22  23  24  25 0
 3-21G
 ****
 27  28  29  30  38  39  40  41  42  43  44  45 0
 3-21G
 ****


