%nproc=1
%NoSave
%Mem=1900MB
#P OB98/GEN NMR

erre ene a

0 1
  C     -252.133     320.643     667.003
  O     -250.783     320.227     666.965
  H     -252.616     320.355     666.069
  H     -252.192     321.731     667.108
  H     -252.649     320.157     667.836
  P     -249.858     320.644     668.204
  C     -249.973     318.313     669.345
  O     -249.153     319.304     668.736
  C     -249.356     316.934     669.102
  O     -249.314     316.661     667.680
  C     -247.927     316.791     669.592
  O     -247.841     316.587     670.997
  C     -247.465     315.584     668.802
  O     -247.839     314.354     669.444
  C     -248.207     315.758     667.459
  N     -247.312     316.226     666.405
  C     -246.784     315.237     665.582
  O     -247.038     314.045     665.705
  N     -245.913     315.675     664.619
  C     -245.492     316.962     664.442
  O     -244.660     317.273     663.588
  C     -246.070     317.956     665.357
  C     -246.937     317.550     666.283
  O     -250.916     321.000     669.349
  O     -248.921     321.777     667.937
  H     -250.954     321.969     669.473
  H     -248.813     314.319     669.412
  H     -245.521     314.975     664.002
  H     -245.755     318.984     665.246
  H     -247.373     318.265     666.979
  H     -248.645     314.802     667.137
  H     -246.386     315.576     668.694
  H     -247.334     317.668     669.288
  H     -250.008     316.179     669.574
  H     -250.975     318.339     668.903
  H     -250.051     318.525     670.414
  P     -246.481     317.004     671.733
  C     -247.414     319.117     672.999
  O     -246.928     317.784     673.064
  O     -245.949     318.142     670.743
  O     -245.554     315.856     671.937
  H     -246.677     318.577     670.274
  H     -247.657     319.457     673.984
  H     -248.290     319.148     672.385
  H     -246.661     319.751     672.579

 6  7  8  9  10  11  12  13  14  15  16  27  31  32  33  34  35 0
 6-311+G(2d,p)
 ****
 36  37 0
 6-311+G(2d,p)
 ****
 1  2  3  4  5  17  18  19  20  21  22  23  24  25 0
 3-21G
 ****
 26  28  29  30  38  39  40  41  42  43  44  45 0
 3-21G
 ****


