%nproc=1
%NoSave
%Mem=1900MB
#P OB98/GEN NMR

erre ene a

0 1
  C      120.521    -229.573    -148.973
  O      119.931    -230.656    -149.656
  H      120.362    -229.712    -147.899
  H      120.058    -228.629    -149.270
  H      121.597    -229.540    -149.165
  P      119.848    -230.613    -151.260
  C      120.289    -233.131    -151.483
  O      119.344    -232.085    -151.687
  C      120.454    -233.454    -149.997
  O      119.220    -234.023    -149.483
  C      121.580    -234.454    -149.703
  O      122.368    -233.973    -148.611
  C      120.841    -235.723    -149.304
  O      121.638    -236.576    -148.487
  C      119.586    -235.138    -148.647
  N      118.501    -236.105    -148.532
  C      118.706    -237.174    -147.655
  O      119.776    -237.286    -147.054
  N      117.716    -238.111    -147.507
  C      116.634    -238.022    -148.214
  N      115.696    -238.989    -148.029
  C      116.393    -236.936    -149.188
  C      117.354    -236.019    -149.289
  O      121.095    -230.155    -151.938
  O      118.575    -229.695    -151.571
  H      121.192    -237.449    -148.422
  H      118.633    -229.357    -152.500
  H      115.480    -236.911    -149.761
  H      117.259    -235.180    -149.972
  H      119.815    -234.753    -147.644
  H      120.562    -236.282    -150.207
  H      122.236    -234.627    -150.552
  H      120.605    -232.514    -149.455
  H      115.899    -239.715    -147.352
  H      121.248    -232.826    -151.916
  H      114.819    -239.023    -148.529
  H      119.927    -234.024    -152.004
  P      123.696    -233.159    -149.003
  C      124.320    -232.352    -146.621
  O      124.673    -233.167    -147.727
  O      123.182    -231.645    -149.086
  O      124.318    -233.607    -150.286
  H      123.042    -231.388    -150.016
  H      125.056    -232.457    -145.851
  H      123.365    -232.655    -146.245
  H      124.273    -231.329    -146.932

 6  7  8  9  10  11  12  13  14  15  16  26  30  31  32  33  35 0
 6-311+G(2d,p)
 ****
 37  38 0
 6-311+G(2d,p)
 ****
 1  2  3  4  5  17  18  19  20  21  22  23  24  25 0
 3-21G
 ****
 27  28  29  34  36  39  40  41  42  43  44  45  46 0
 3-21G
 ****


