%nproc=1
%NoSave
%Mem=1900MB
#P OB98/GEN NMR

erre ene a

0 1
  C     -372.779     236.710       7.046
  O     -373.198     237.872       6.348
  P     -374.626     238.557       6.650
  C     -375.872     237.223       4.824
  O     -375.417     238.486       5.258
  C     -376.586     237.357       3.482
  O     -377.804     238.098       3.635
  C     -375.771     238.103       2.408
  O     -374.749     237.275       1.874
  C     -376.876     238.495       1.435
  O     -377.229     237.382       0.599
  C     -378.050     238.821       2.393
  N     -378.214     240.243       2.643
  C     -378.764     240.986       1.590
  O     -379.087     240.461       0.534
  N     -378.950     242.347       1.788
  C     -378.613     242.893       2.908
  N     -378.890     244.217       3.066
  C     -377.986     242.145       4.022
  C     -377.815     240.840       3.822
  O     -374.560     239.896       7.272
  O     -375.403     237.465       7.542
  H     -377.090     236.575       1.128
  H     -375.231     237.557       8.510
  H     -377.711     242.652       4.932
  H     -377.391     240.220       4.589
  H     -378.986     238.404       1.999
  H     -376.619     239.342       0.799
  H     -375.328     238.999       2.844
  H     -376.838     236.337       3.127
  H     -379.472     244.642       2.353
  H     -376.592     236.830       5.556
  H     -378.938     244.645       3.986
  H     -375.023     236.528       4.754
  P     -373.256     237.872       1.821
  C     -373.166     238.761      -0.632
  O     -372.799     237.742       0.276
  O     -372.401     236.781       2.594
  O     -373.131     239.237       2.405
  H     -372.203     237.086       3.509
  H     -372.578     238.639      -1.541
  H     -372.937     239.744      -0.203
  H     -374.226     238.688      -0.863
  H     -371.810     236.417       6.701
  H     -373.476     235.917       6.869
  H     -372.736     236.920       8.094

 3  4  5  6  7  8  9  10  11  12  13  23  27  28  29  30  32 0
 6-311+G(2d,p)
 ****
 34  35 0
 6-311+G(2d,p)
 ****
 1  2  14  15  16  17  18  19  20  21  22  24  25  26 0
 3-21G
 ****
 31  33  36  37  38  39  40  41  42  43  44  45  46 0
 3-21G
 ****


