%nproc=1
%NoSave
%Mem=1900MB
#P OB98/GEN NMR

erre ene a

0 1
  C     -463.610      -6.975     -22.605
  O     -463.413      -6.024     -21.577
  H     -463.680      -6.448     -23.561
  H     -464.544      -7.518     -22.431
  H     -462.776      -7.682     -22.654
  P     -462.923      -6.532     -20.139
  C     -460.433      -5.912     -20.432
  O     -461.642      -5.648     -19.736
  C     -459.620      -4.622     -20.631
  O     -460.477      -3.595     -21.186
  C     -459.106      -4.098     -19.285
  O     -457.890      -3.365     -19.423
  C     -460.214      -3.152     -18.849
  O     -459.778      -2.182     -17.899
  C     -460.643      -2.566     -20.192
  N     -463.818       1.311     -19.254
  C     -462.474       1.199     -18.971
  N     -461.904       2.248     -18.334
  N     -461.755       0.145     -19.272
  C     -462.475      -0.853     -19.837
  C     -463.815      -0.874     -20.142
  C     -464.590       0.315     -19.843
  O     -465.793       0.463     -20.054
  N     -464.192      -2.073     -20.694
  C     -463.083      -2.783     -20.715
  N     -462.011      -2.082     -20.217
  O     -462.272      -7.968     -20.445
  O     -463.987      -6.624     -19.087
  H     -460.495      -1.528     -17.800
  H     -462.296      -8.527     -19.648
  H     -464.323       2.151     -19.016
  H     -463.004      -3.802     -21.077
  H     -459.991      -1.716     -20.469
  H     -461.005      -3.743     -18.371
  H     -462.443       2.994     -17.930
  H     -458.956      -4.902     -18.564
  H     -461.011       2.066     -17.865
  H     -458.815      -4.793     -21.355
  H     -460.702      -6.340     -21.402
  H     -459.840      -6.658     -19.896
  P     -456.606      -3.907     -18.634
  C     -454.962      -5.052     -20.338
  O     -455.361      -3.877     -19.644
  O     -456.913      -5.461     -18.436
  O     -456.357      -3.207     -17.335
  H     -457.165      -5.644     -17.510
  H     -454.119      -4.831     -20.959
  H     -455.771      -5.399     -20.946
  H     -454.695      -5.810     -19.632

 6  7  8  9  10  11  12  13  14  15  26  29  33  34 0
 6-311+G(2d,p)
 ****
 36  38  39  40  41 0
 6-311+G(2d,p)
 ****
 1  2  3  4  5  16  17  18  19  20  21  22  23  24  25 0
 3-21G
 ****
 27  28  30  31  32  35  37  42  43  44  45  46  47 0
 3-21G
 ****
 48  49 0
 3-21G
 ****


