%nproc=1
%NoSave
%Mem=1900MB
#P OB98/GEN NMR

erre ene a

0 1
  C     -121.769     -68.956     207.848
  O     -121.740     -68.298     209.102
  P     -120.359     -68.088     209.885
  C     -120.555     -70.619     210.235
  O     -120.116     -69.392     210.799
  C     -120.439     -71.762     211.248
  O     -120.900     -72.997     210.617
  C     -119.019     -72.018     211.769
  O     -119.149     -72.454     213.132
  C     -118.544     -73.185     210.909
  O     -117.461     -73.896     211.494
  C     -119.845     -73.975     210.781
  N     -119.008     -78.791     209.284
  C     -118.876     -78.193     210.481
  N     -119.092     -76.898     210.793
  C     -119.493     -76.204     209.708
  C     -119.645     -76.672     208.414
  C     -119.399     -78.049     208.213
  N     -119.562     -78.682     207.005
  N     -120.013     -75.641     207.570
  C     -120.075     -74.573     208.340
  N     -119.829     -74.882     209.652
  O     -120.228     -66.785     210.611
  O     -119.244     -68.227     208.744
  H     -117.797     -74.366     212.283
  H     -118.872     -67.344     208.531
  H     -118.558     -78.835     211.299
  H     -120.294     -73.571     208.007
  H     -120.060     -74.558     211.688
  H     -118.210     -72.799     209.936
  H     -118.356     -71.144     211.704
  H     -121.128     -71.553     212.083
  H     -119.926     -70.839     209.364
  H     -119.491     -79.690     207.005
  H     -120.098     -78.223     206.271
  H     -121.596     -70.522     209.893
  P     -118.444     -71.623     214.309
  C     -116.486     -73.251     214.634
  O     -117.653     -72.686     215.212
  O     -119.333     -70.685     215.056
  O     -117.253     -70.846     213.555
  H     -116.939     -70.101     214.119
  H     -116.773     -74.059     213.941
  H     -115.861     -73.672     215.423
  H     -115.912     -72.494     214.087
  H     -122.776     -68.997     207.490
  H     -121.389     -69.950     207.958
  H     -121.163     -68.418     207.149

 3  4  5  6  7  8  9  10  11  12  22  25  29  30  31  32 0
 6-311+G(2d,p)
 ****
 33  36  37 0
 6-311+G(2d,p)
 ****
 1  2  13  14  15  16  17  18  19  20  21  23  24  26 0
 3-21G
 ****
 27  28  34  35  38  39  40  41  42  43  44  45  46  47  48 0
 3-21G
 ****


