%nproc=1
%NoSave
%Mem=1900MB
#P OB98/GEN NMR

erre ene a

0 1
  C      304.478    -925.056     397.646
  O      304.120    -923.870     396.940
  P      302.572    -923.640     396.579
  C      302.394    -921.976     398.545
  O      301.804    -923.097     397.879
  C      301.308    -921.070     399.153
  O      300.652    -920.349     398.071
  C      300.185    -921.810     399.896
  O      300.363    -922.067     401.282
  C      299.046    -920.804     399.771
  O      299.165    -919.814     400.812
  C      299.262    -920.166     398.412
  N      294.425    -921.104     397.000
  C      294.945    -920.504     398.103
  N      296.245    -920.305     398.402
  C      297.047    -920.755     397.419
  C      296.649    -921.376     396.249
  C      295.275    -921.554     396.050
  N      294.742    -922.169     394.940
  N      297.748    -921.720     395.480
  C      298.793    -921.328     396.204
  N      298.414    -920.731     397.364
  O      301.903    -924.754     395.857
  O      302.636    -922.333     395.651
  H      298.918    -920.258     401.647
  H      301.986    -922.406     394.932
  H      294.233    -920.159     398.842
  H      299.827    -921.454     395.909
  H      299.080    -919.084     398.427
  H      298.059    -921.270     399.910
  H      299.923    -922.750     399.376
  H      301.775    -920.333     399.812
  H      303.002    -921.401     397.844
  H      293.739    -922.299     394.900
  H      295.359    -922.562     394.247
  H      303.073    -922.372     399.304
  P      301.240    -923.314     401.796
  C      302.925    -922.401     403.585
  O      302.656    -922.688     402.226
  O      301.327    -924.453     400.849
  O      300.561    -923.669     403.203
  H      300.684    -922.997     403.889
  H      303.993    -922.195     403.695
  H      302.655    -923.241     404.232
  H      302.361    -921.504     403.891
  H      305.535    -925.067     397.812
  H      304.199    -925.913     397.069
  H      303.969    -925.078     398.587

 3  4  5  6  7  8  9  10  11  12  22  25  29  30  31  32 0
 6-311+G(2d,p)
 ****
 33  36  37 0
 6-311+G(2d,p)
 ****
 1  2  13  14  15  16  17  18  19  20  21  23  24  26 0
 3-21G
 ****
 27  28  34  35  38  39  40  41  42  43  44  45  46  47  48 0
 3-21G
 ****


