%nproc=1
%NoSave
%Mem=1900MB
#P OB98/GEN NMR

erre ene a

0 1
  C     -320.235     401.888      19.186
  O     -319.475     402.041      20.390
  P     -318.071     401.278      20.621
  C     -316.938     403.591      20.703
  O     -316.879     402.254      20.206
  C     -315.555     404.240      20.781
  O     -314.721     403.518      21.718
  C     -314.784     404.257      19.453
  O     -315.249     405.308      18.633
  C     -313.355     404.423      19.954
  O     -313.079     405.799      20.258
  C     -313.340     403.577      21.233
  N     -309.433     400.405      22.181
  C     -309.682     401.688      22.538
  N     -310.748     402.463      22.246
  C     -311.633     401.784      21.513
  C     -311.530     400.474      21.050
  C     -310.368     399.779      21.407
  N     -310.113     398.475      21.020
  N     -312.627     400.136      20.301
  C     -313.403     401.221      20.315
  N     -312.838     402.236      21.030
  O     -318.015     399.918      19.997
  O     -317.922     401.179      22.215
  H     -313.027     406.293      19.431
  H     -317.396     400.388      22.452
  H     -308.908     402.150      23.169
  H     -314.369     401.286      19.816
  H     -312.755     404.038      22.019
  H     -312.611     404.108      19.210
  H     -314.891     403.296      18.942
  H     -315.678     405.254      21.182
  H     -317.384     403.555      21.697
  H     -309.255     398.048      21.305
  H     -310.778     398.011      20.416
  H     -317.580     404.166      20.041
  P     -315.692     404.998      17.116
  C     -317.973     406.089      17.615
  O     -317.296     404.946      17.071
  O     -315.008     403.837      16.478
  O     -315.359     406.359      16.347
  H     -315.145     406.153      15.409
  H     -317.988     406.011      18.704
  H     -319.000     406.081      17.227
  H     -317.461     407.001      17.313
  H     -321.124     402.480      19.248
  H     -320.500     400.859      19.060
  H     -319.649     402.210      18.351

 3  4  5  6  7  8  9  10  11  12  22  25  29  30  31  32 0
 6-311+G(2d,p)
 ****
 33  36  37 0
 6-311+G(2d,p)
 ****
 1  2  13  14  15  16  17  18  19  20  21  23  24  26 0
 3-21G
 ****
 27  28  34  35  38  39  40  41  42  43  44  45  46  47  48 0
 3-21G
 ****


