%nproc=1
%NoSave
%Mem=1900MB
#P OB98/GEN NMR

erre ene a

0 1
  C      105.990     353.889     107.346
  O      105.668     353.991     105.974
  H      105.508     352.997     107.754
  H      105.622     354.765     107.887
  H      107.071     353.798     107.474
  P      106.231     355.273     105.192
  C      103.850     356.042     104.489
  O      105.145     355.637     104.068
  C      102.858     355.861     103.345
  O      102.973     356.962     102.416
  C      103.093     354.606     102.515
  O      102.597     353.441     103.151
  C      102.330     354.954     101.248
  O      100.930     354.664     101.378
  C      102.571     356.474     101.121
  N      103.553     356.789     100.087
  C      103.086     356.748      98.778
  O      101.924     356.465      98.486
  N      104.010     357.006      97.804
  C      105.336     357.258      98.005
  O      106.129     357.409      97.084
  C      105.772     357.303      99.412
  C      104.876     357.061     100.373
  O      107.459     354.677     104.357
  O      106.640     356.414     106.060
  H      108.300     354.913     104.790
  H      100.497     355.043     100.589
  H      103.690     356.970      96.847
  H      106.817     357.508      99.608
  H      105.178     357.069     101.417
  H      101.638     356.988     100.866
  H      102.691     354.383     100.392
  H      104.156     354.504     102.273
  H      101.842     355.865     103.762
  H      103.875     357.098     104.778
  H      103.556     355.445     105.359
  P      103.644     352.326     103.632
  C      102.865     350.527     101.881
  O      103.011     350.905     103.239
  O      103.472     352.403     105.220
  O      105.031     352.552     103.136
  H      102.555     352.584     105.495
  H      102.427     349.552     101.827
  H      103.825     350.513     101.409
  H      102.232     351.230     101.381

 6  7  8  9  10  11  12  13  14  15  16  27  31  32  33  34  35 0
 6-311+G(2d,p)
 ****
 36  37 0
 6-311+G(2d,p)
 ****
 1  2  3  4  5  17  18  19  20  21  22  23  24  25 0
 3-21G
 ****
 26  28  29  30  38  39  40  41  42  43  44  45 0
 3-21G
 ****


