%nproc=1
%NoSave
%Mem=1900MB
#P OB98/GEN NMR

erre ene a

0 1
  C      890.691     145.246    -246.030
  O      891.807     145.616    -246.818
  H      890.322     146.135    -245.503
  H      890.992     144.503    -245.288
  H      889.890     144.847    -246.649
  P      892.372     144.572    -247.894
  C      894.523     145.951    -248.277
  O      893.351     145.406    -248.865
  C      895.321     146.757    -249.312
  O      895.775     145.839    -250.359
  C      894.504     147.879    -250.000
  O      895.427     148.943    -250.299
  C      894.055     147.171    -251.263
  O      893.558     148.072    -252.224
  C      895.332     146.405    -251.618
  N      895.131     145.370    -252.628
  C      895.045     145.783    -253.953
  O      895.152     146.948    -254.316
  N      894.823     144.782    -254.874
  C      894.676     143.455    -254.581
  O      894.496     142.598    -255.452
  C      894.746     143.085    -253.168
  C      894.975     144.050    -252.265
  O      891.354     143.743    -248.595
  O      893.396     143.671    -247.046
  H      892.947     142.844    -246.780
  H      893.390     147.602    -253.069
  H      894.747     145.062    -255.840
  H      894.622     142.042    -252.906
  H      895.031     143.816    -251.203
  H      896.116     147.094    -251.954
  H      893.232     146.474    -251.036
  H      893.696     148.260    -249.373
  H      896.220     147.158    -248.831
  H      895.140     145.124    -247.900
  H      894.236     146.599    -247.437
  P      896.063     149.893    -249.180
  C      894.194     151.665    -249.078
  O      895.541     151.402    -249.406
  O      897.555     149.796    -249.092
  O      895.394     149.453    -247.798
  H      896.045     149.528    -247.086
  H      893.974     152.694    -249.272
  H      894.032     151.455    -248.041
  H      893.555     151.046    -249.672

 6  7  8  9  10  11  12  13  14  15  16  27  31  32  33  34  35 0
 6-311+G(2d,p)
 ****
 36  37 0
 6-311+G(2d,p)
 ****
 1  2  3  4  5  17  18  19  20  21  22  23  24  25 0
 3-21G
 ****
 26  28  29  30  38  39  40  41  42  43  44  45 0
 3-21G
 ****


