%nproc=1
%NoSave
%Mem=1900MB
#P OB98/GEN NMR

erre ene a

0 1
  C       63.430    -139.888     -85.367
  O       64.367    -138.872     -85.069
  H       63.920    -140.643     -85.986
  H       62.583    -139.476     -85.922
  H       63.078    -140.364     -84.449
  P       63.882    -137.617     -84.201
  C       62.656    -136.309     -86.059
  O       62.526    -137.100     -84.884
  C       62.381    -134.842     -85.743
  O       62.740    -134.010     -86.862
  C       60.919    -134.530     -85.429
  O       60.616    -134.855     -84.083
  C       60.891    -133.034     -85.689
  O       61.498    -132.340     -84.581
  C       61.785    -132.915     -86.935
  N       59.630    -130.279     -90.698
  C       60.135    -129.843     -89.488
  N       60.023    -128.522     -89.232
  N       60.688    -130.632     -88.605
  C       60.669    -131.936     -88.965
  C       60.182    -132.491     -90.126
  C       59.631    -131.598     -91.124
  O       59.195    -131.941     -92.220
  N       60.250    -133.861     -90.097
  C       60.827    -134.130     -88.942
  N       61.094    -132.995     -88.211
  O       64.899    -136.539     -83.977
  O       63.376    -138.260     -82.827
  H       62.458    -132.504     -84.632
  H       64.091    -138.284     -82.165
  H       59.207    -129.625     -91.336
  H       61.078    -135.122     -88.586
  H       62.357    -131.980     -86.944
  H       59.879    -132.641     -85.800
  H       59.476    -127.894     -89.802
  H       60.242    -135.026     -86.133
  H       60.334    -128.195     -88.326
  H       63.030    -134.552     -84.907
  H       61.932    -136.685     -86.790
  H       63.661    -136.411     -86.480
  P       59.235    -135.570     -83.680
  C       58.103    -133.247     -83.594
  O       58.082    -134.555     -84.138
  O       59.149    -136.012     -82.261
  O       59.079    -136.751     -84.742
  H       59.558    -137.576     -84.477
  H       57.281    -132.685     -83.986
  H       59.022    -132.766     -83.857
  H       58.022    -133.302     -82.529

 6  7  8  9  10  11  12  13  14  15  26  29  33  34 0
 6-311+G(2d,p)
 ****
 36  38  39  40  41 0
 6-311+G(2d,p)
 ****
 1  2  3  4  5  16  17  18  19  20  21  22  23  24  25 0
 3-21G
 ****
 27  28  30  31  32  35  37  42  43  44  45  46  47 0
 3-21G
 ****
 48  49 0
 3-21G
 ****


