%nproc=1
%NoSave
%Mem=1900MB
#P OB98/GEN NMR

erre ene a

0 1
  C      -33.536      39.940      -0.721
  O      -34.763      40.413      -1.235
  H      -32.723      40.520      -1.164
  H      -33.398      38.889      -0.986
  H      -33.496      40.057       0.365
  P      -36.129      39.870      -0.597
  C      -37.039      39.351      -2.952
  O      -37.260      40.026      -1.721
  C      -38.154      39.687      -3.937
  O      -37.881      39.090      -5.222
  C      -39.526      39.166      -3.523
  O      -40.081      39.965      -2.496
  C      -40.264      39.227      -4.852
  O      -40.709      40.563      -5.130
  C      -39.154      38.797      -5.840
  N      -39.238      37.389      -6.224
  C      -39.881      37.112      -7.426
  O      -40.395      37.981      -8.128
  N      -39.930      35.791      -7.787
  C      -39.483      34.741      -7.039
  O      -39.599      33.569      -7.384
  C      -38.844      35.091      -5.763
  C      -38.751      36.377      -5.420
  O      -36.491      40.430       0.739
  O      -35.907      38.285      -0.529
  H      -41.356      40.791      -4.434
  H      -35.662      38.026       0.378
  H      -40.403      35.570      -8.648
  H      -38.482      34.284      -5.141
  H      -38.287      36.654      -4.480
  H      -39.205      39.403      -6.754
  H      -41.149      38.590      -4.871
  H      -39.455      38.119      -3.209
  H      -38.176      40.776      -4.070
  H      -37.029      38.271      -2.765
  H      -36.065      39.652      -3.351
  P      -40.757      39.292      -1.212
  C      -42.994      39.680      -2.398
  O      -42.290      39.772      -1.166
  O      -40.012      39.470       0.068
  O      -40.874      37.745      -1.602
  H      -40.205      37.229      -1.112
  H      -43.999      40.021      -2.261
  H      -43.005      38.662      -2.727
  H      -42.508      40.287      -3.133

 6  7  8  9  10  11  12  13  14  15  16  26  31  32  33  34  35 0
 6-311+G(2d,p)
 ****
 36  37 0
 6-311+G(2d,p)
 ****
 1  2  3  4  5  17  18  19  20  21  22  23  24  25 0
 3-21G
 ****
 27  28  29  30  38  39  40  41  42  43  44  45 0
 3-21G
 ****


