%nproc=1
%NoSave
%Mem=1900MB
#P OB98/GEN NMR

erre ene a

0 1
  C      295.599    -814.019     454.118
  O      296.311    -813.205     455.018
  H      296.066    -815.008     454.090
  H      295.643    -813.588     453.110
  H      294.562    -814.124     454.430
  P      295.734    -811.724     455.275
  C      296.940    -810.768     453.186
  O      295.698    -811.002     453.840
  C      296.819    -809.619     452.185
  O      296.048    -810.079     451.032
  C      296.110    -808.364     452.748
  O      296.723    -807.213     452.156
  C      294.704    -808.498     452.181
  O      294.009    -807.248     452.143
  C      295.018    -809.092     450.810
  N      290.321    -808.114     449.274
  C      291.290    -807.274     449.807
  N      290.935    -805.980     449.961
  N      292.469    -807.682     450.162
  C      292.688    -809.002     449.930
  C      291.826    -809.938     449.404
  C      290.497    -809.479     449.040
  O      289.594    -810.176     448.575
  N      292.404    -811.167     449.343
  C      293.628    -810.987     449.832
  N      293.843    -809.690     450.195
  O      296.951    -811.004     456.034
  O      294.471    -811.657     456.059
  H      293.113    -807.409     451.795
  H      296.837    -811.075     457.001
  H      289.419    -807.756     449.027
  H      294.377    -811.762     449.938
  H      295.401    -808.346     450.105
  H      294.124    -809.200     452.794
  H      290.058    -805.589     449.669
  H      296.139    -808.286     453.834
  H      291.648    -805.345     450.311
  H      297.826    -809.372     451.819
  H      297.237    -811.682     452.643
  H      297.710    -810.529     453.930
  P      297.862    -806.448     452.997
  C      296.678    -804.204     453.603
  O      297.135    -805.482     454.047
  O      298.458    -805.426     451.917
  O      298.914    -807.346     453.552
  H      299.385    -805.221     452.136
  H      296.219    -803.686     454.419
  H      295.965    -804.334     452.816
  H      297.508    -803.634     453.241

 6  7  8  9  10  11  12  13  14  15  26  29  33  34 0
 6-311+G(2d,p)
 ****
 36  38  39  40  41 0
 6-311+G(2d,p)
 ****
 1  2  3  4  5  16  17  18  19  20  21  22  23  24  25 0
 3-21G
 ****
 27  28  30  31  32  35  37  42  43  44  45  46  47 0
 3-21G
 ****
 48  49 0
 3-21G
 ****


