%nproc=1
%NoSave
%Mem=1900MB
#P OB98/GEN NMR

erre ene a

0 1
  C       38.877     -74.209     -24.420
  O       39.566     -73.102     -24.963
  H       38.340     -73.884     -23.525
  H       39.588     -74.988     -24.137
  H       38.152     -74.610     -25.133
  P       40.213     -73.233     -26.423
  C       39.443     -71.035     -27.528
  O       40.517     -71.740     -26.926
  C       38.472     -70.515     -26.464
  O       39.166     -69.522     -25.648
  C       37.214     -69.834     -27.040
  O       36.139     -70.076     -26.123
  C       37.635     -68.377     -27.017
  O       36.544     -67.514     -27.198
  C       38.351     -68.333     -25.666
  N       39.154     -67.133     -25.469
  C       38.896     -66.368     -24.338
  O       38.053     -66.659     -23.492
  N       39.644     -65.228     -24.207
  C       40.595     -64.790     -25.079
  O       41.252     -63.771     -24.902
  C       40.803     -65.626     -26.272
  C       40.085     -66.742     -26.410
  O       39.463     -74.085     -27.391
  O       41.676     -73.817     -26.135
  H       41.675     -74.784     -26.270
  H       35.993     -67.482     -26.387
  H       39.470     -64.662     -23.391
  H       41.536     -65.294     -26.995
  H       40.209     -67.382     -27.278
  H       37.634     -68.423     -24.843
  H       38.335     -68.172     -27.832
  H       36.942     -70.209     -28.031
  H       38.203     -71.341     -25.795
  H       38.920     -71.718     -28.204
  H       39.842     -70.196     -28.109
  P       34.671     -70.531     -26.586
  C       33.644     -72.574     -25.395
  O       33.896     -71.178     -25.337
  O       34.670     -71.405     -27.799
  O       33.873     -69.173     -26.871
  H       33.268     -69.310     -27.625
  H       33.126     -72.880     -24.510
  H       34.572     -73.101     -25.465
  H       33.044     -72.793     -26.253

 6  7  8  9  10  11  12  13  14  15  16  27  31  32  33  34  35 0
 6-311+G(2d,p)
 ****
 36  37 0
 6-311+G(2d,p)
 ****
 1  2  3  4  5  17  18  19  20  21  22  23  24  25 0
 3-21G
 ****
 26  28  29  30  38  39  40  41  42  43  44  45 0
 3-21G
 ****


