%nproc=1
%NoSave
%Mem=1900MB
#P OB98/GEN NMR

erre ene a

0 1
  C      600.766     321.433    -143.958
  O      600.071     320.610    -144.902
  P      598.723     319.884    -144.427
  C      597.595     320.315    -146.732
  O      597.950     319.363    -145.732
  C      597.784     319.715    -148.125
  O      599.166     319.354    -148.376
  C      596.979     318.436    -148.361
  O      595.633     318.731    -148.728
  C      597.717     317.832    -149.543
  O      597.305     318.482    -150.764
  C      599.174     318.173    -149.219
  N      603.404     315.389    -149.158
  C      603.027     316.418    -150.006
  N      603.917     316.775    -150.956
  N      601.893     317.064    -149.908
  C      601.111     316.612    -148.887
  C      601.377     315.597    -147.992
  C      602.630     314.890    -148.127
  O      603.008     313.951    -147.417
  N      600.338     315.436    -147.113
  C      599.457     316.357    -147.456
  N      599.875     317.098    -148.539
  O      597.822     321.111    -143.940
  O      598.921     318.872    -143.345
  H      596.334     318.439    -150.790
  H      597.192     320.811    -143.248
  H      604.287     314.928    -149.282
  H      598.512     316.543    -146.944
  H      599.760     318.419    -150.123
  H      597.505     316.773    -149.670
  H      604.835     316.364    -151.058
  H      597.026     317.763    -147.498
  H      603.672     317.553    -151.563
  H      597.486     320.467    -148.873
  H      598.205     321.213    -146.639
  H      596.562     320.638    -146.568
  P      594.469     317.780    -148.147
  C      593.828     319.319    -146.159
  O      593.442     318.755    -147.393
  O      595.221     317.007    -146.954
  O      593.881     316.830    -149.137
  H      594.833     316.113    -146.844
  H      593.086     320.086    -145.879
  H      594.810     319.818    -146.241
  H      593.863     318.555    -145.381
  H      601.639     321.845    -144.419
  H      601.054     320.842    -143.114
  H      600.124     322.226    -143.636

 3  4  5  6  7  8  9  10  11  12  23  26  30  31 0
 6-311+G(2d,p)
 ****
 33  35  36  37  38 0
 6-311+G(2d,p)
 ****
 1  2  13  14  15  16  17  18  19  20  21  22  24  25 0
 3-21G
 ****
 27  28  29  32  34  39  40  41  42  43  44  45  46  47  48  49 0
 3-21G
 ****


