%nproc=1
%NoSave
%Mem=1900MB
#P OB98/GEN NMR

erre ene a

0 1
  C      234.017     338.505    -533.488
  O      235.044     339.461    -533.315
  P      235.780     339.660    -531.895
  C      235.103     342.149    -532.106
  O      236.140     341.224    -531.822
  C      235.375     343.484    -531.408
  O      235.444     343.250    -529.978
  C      236.686     344.166    -531.830
  O      236.453     345.579    -531.804
  C      237.645     343.753    -530.726
  O      238.757     344.639    -530.624
  C      236.718     343.754    -529.513
  N      237.229     342.957    -528.407
  C      236.441     342.855    -527.256
  O      235.364     343.441    -527.178
  N      236.898     342.094    -526.212
  C      238.072     341.551    -526.277
  N      238.448     340.748    -525.239
  C      238.982     341.722    -527.425
  C      238.488     342.411    -528.450
  O      236.931     338.744    -531.654
  O      234.601     339.532    -530.828
  H      239.220     344.653    -531.484
  H      234.410     338.597    -530.568
  H      239.968     341.267    -527.419
  H      239.079     342.562    -529.348
  H      236.531     344.788    -529.175
  H      238.029     342.751    -530.932
  H      237.015     343.871    -532.832
  H      234.524     344.148    -531.589
  H      237.738     340.517    -524.559
  H      234.162     341.740    -531.731
  H      239.184     340.051    -525.356
  H      235.010     342.283    -533.189
  P      236.881     346.442    -533.096
  C      239.309     346.851    -532.295
  O      238.081     347.414    -532.665
  O      235.643     347.465    -533.213
  O      237.035     345.693    -534.376
  H      235.558     347.759    -534.136
  H      240.003     347.652    -532.041
  H      239.735     346.267    -533.114
  H      239.188     346.205    -531.410
  H      233.667     338.536    -534.499
  H      233.208     338.726    -532.824
  H      234.398     337.529    -533.273

 3  4  5  6  7  8  9  10  11  12  13  23  27  28  29  30  32 0
 6-311+G(2d,p)
 ****
 34  35 0
 6-311+G(2d,p)
 ****
 1  2  14  15  16  17  18  19  20  21  22  24  25  26 0
 3-21G
 ****
 31  33  36  37  38  39  40  41  42  43  44  45  46 0
 3-21G
 ****


