%nproc=1
%NoSave
%Mem=1900MB
#P OB98/GEN NMR

erre ene a

0 1
  C      170.359     210.546      30.427
  O      171.493     211.365      30.141
  P      172.753     210.616      29.483
  C      173.542     212.747      28.236
  O      173.868     211.730      29.170
  C      174.500     213.937      28.364
  O      174.213     214.698      29.576
  C      175.981     213.534      28.426
  O      176.718     214.561      27.748
  C      176.258     213.567      29.919
  O      177.641     213.593      30.235
  C      175.458     214.806      30.304
  N      177.425     216.404      34.731
  C      177.915     216.409      33.472
  N      177.327     215.958      32.343
  C      176.103     215.469      32.610
  C      175.472     215.395      33.842
  C      176.187     215.894      34.944
  N      175.710     215.873      36.234
  N      174.224     214.804      33.716
  C      174.148     214.466      32.439
  N      175.217     214.921      31.722
  O      172.218     210.188      28.038
  O      173.238     209.452      30.281
  H      177.763     213.486      31.198
  H      171.952     209.250      28.035
  H      178.910     216.826      33.357
  H      173.347     213.899      31.991
  H      175.949     215.732      29.984
  H      175.831     212.672      30.387
  H      176.195     212.572      27.957
  H      174.332     214.608      27.512
  H      172.519     213.091      28.397
  H      176.300     216.250      36.959
  H      174.799     215.492      36.434
  H      173.569     212.322      27.227
  P      177.822     214.135      26.665
  C      177.139     216.138      25.217
  O      178.195     215.500      25.910
  O      176.894     213.417      25.569
  O      178.946     213.293      27.163
  H      176.131     213.974      25.335
  H      177.504     217.089      24.821
  H      176.301     216.331      25.891
  H      176.811     215.510      24.383
  H      169.586     211.146      30.860
  H      170.640     209.776      31.115
  H      170.002     210.103      29.521

 3  4  5  6  7  8  9  10  11  12  22  25  29  30  31  32 0
 6-311+G(2d,p)
 ****
 33  36  37 0
 6-311+G(2d,p)
 ****
 1  2  13  14  15  16  17  18  19  20  21  23  24  26 0
 3-21G
 ****
 27  28  34  35  38  39  40  41  42  43  44  45  46  47  48 0
 3-21G
 ****


