%nproc=1
%NoSave
%Mem=1900MB
#P OB98/GEN NMR

erre ene a

0 1
  C     -901.988     539.910    -314.027
  O     -902.523     539.292    -312.874
  H     -901.996     540.990    -313.875
  H     -902.591     539.675    -314.907
  H     -900.954     539.592    -314.192
  P     -902.627     537.696    -312.838
  C     -904.448     537.913    -311.005
  O     -904.111     537.407    -312.295
  C     -905.867     538.478    -311.009
  O     -905.939     539.720    -311.732
  C     -906.908     537.578    -311.687
  O     -907.264     536.431    -310.902
  C     -908.057     538.563    -311.817
  O     -908.683     538.748    -310.524
  C     -907.295     539.836    -312.261
  N     -907.276     540.003    -313.716
  C     -908.373     540.668    -314.278
  O     -909.288     541.080    -313.581
  N     -908.404     540.840    -315.660
  C     -907.446     540.347    -316.387
  N     -907.540     540.527    -317.730
  C     -906.288     539.615    -315.837
  C     -906.270     539.486    -314.507
  O     -901.525     536.976    -312.120
  O     -902.773     537.267    -314.375
  H     -909.387     538.066    -310.462
  H     -902.831     536.277    -314.420
  H     -905.527     539.210    -316.486
  H     -905.449     538.954    -314.013
  H     -907.743     540.738    -311.801
  H     -908.823     538.237    -312.512
  H     -906.577     537.278    -312.688
  H     -906.140     538.696    -309.962
  H     -908.336     541.028    -318.088
  H     -903.721     538.692    -310.745
  H     -906.889     540.104    -318.388
  H     -904.391     537.120    -310.252
  P     -906.990     534.994    -311.583
  C     -909.007     533.902    -310.330
  O     -908.405     534.234    -311.567
  O     -906.121     534.244    -310.476
  O     -906.322     535.047    -312.932
  H     -905.165     534.286    -310.712
  H     -909.937     533.404    -310.508
  H     -909.183     534.795    -309.768
  H     -908.356     533.256    -309.779

 6  7  8  9  10  11  12  13  14  15  16  26  30  31  32  33  35 0
 6-311+G(2d,p)
 ****
 37  38 0
 6-311+G(2d,p)
 ****
 1  2  3  4  5  17  18  19  20  21  22  23  24  25 0
 3-21G
 ****
 27  28  29  34  36  39  40  41  42  43  44  45  46 0
 3-21G
 ****


