%nproc=1
%NoSave
%Mem=1900MB
#P OB98/GEN NMR

erre ene a

0 1
  C      132.635     -67.107     -37.357
  O      133.054     -68.128     -36.441
  P      132.899     -69.698     -36.736
  C      135.431     -70.232     -36.653
  O      134.151     -70.456     -36.073
  C      136.528     -70.298     -35.587
  O      136.529     -69.090     -34.791
  C      136.377     -71.416     -34.567
  O      136.686     -72.687     -35.106
  C      137.331     -70.949     -33.469
  O      138.682     -71.343     -33.750
  C      137.202     -69.416     -33.553
  N      136.508     -68.841     -32.413
  C      137.283     -68.560     -31.284
  O      138.473     -68.870     -31.252
  N      136.682     -67.947     -30.213
  C      135.403     -67.735     -30.225
  N      134.866     -67.108     -29.143
  C      134.528     -68.142     -31.341
  C      135.141     -68.681     -32.392
  O      132.694     -70.026     -38.178
  O      131.651     -70.173     -35.853
  H      131.240     -70.956     -36.264
  H      139.197     -71.181     -32.935
  H      133.461     -67.984     -31.293
  H      134.574     -68.996     -33.262
  H      138.195     -68.958     -33.637
  H      137.070     -71.366     -32.491
  H      135.350     -71.415     -34.179
  H      137.496     -70.378     -36.100
  H      135.495     -66.834     -28.400
  H      135.437     -69.234     -37.105
  H      133.887     -66.876     -29.063
  H      135.604     -70.972     -37.440
  P      136.206     -73.969     -34.269
  C      134.563     -74.840     -36.079
  O      135.728     -75.083     -35.315
  O      134.845     -73.481     -33.580
  O      137.188     -74.445     -33.249
  H      134.789     -73.838     -32.675
  H      134.641     -75.391     -37.019
  H      134.438     -73.777     -36.300
  H      133.691     -75.202     -35.529
  H      132.842     -66.145     -36.937
  H      131.584     -67.199     -37.537
  H      133.166     -67.216     -38.280

 3  4  5  6  7  8  9  10  11  12  13  24  27  28  29  30  32 0
 6-311+G(2d,p)
 ****
 34  35 0
 6-311+G(2d,p)
 ****
 1  2  14  15  16  17  18  19  20  21  22  23  25  26 0
 3-21G
 ****
 31  33  36  37  38  39  40  41  42  43  44  45  46 0
 3-21G
 ****


