%nproc=1
%NoSave
%Mem=1900MB
#P OB98/GEN NMR

erre ene a

0 1
  C      -23.480      82.651    -167.139
  O      -22.491      83.326    -166.377
  P      -22.298      84.914    -166.491
  C      -21.115      86.701    -165.068
  O      -21.441      85.321    -165.197
  C      -20.540      86.977    -163.679
  O      -21.546      86.629    -162.695
  C      -19.302      86.170    -163.298
  O      -18.076      86.717    -163.758
  C      -19.359      86.270    -161.775
  O      -18.859      87.554    -161.356
  C      -20.862      86.168    -161.500
  N      -21.423      82.697    -157.780
  C      -21.010      83.985    -157.763
  N      -20.867      84.837    -158.799
  C      -21.247      84.252    -159.945
  C      -21.699      82.952    -160.126
  C      -21.782      82.154    -158.967
  N      -22.229      80.848    -158.986
  N      -21.979      82.712    -161.456
  C      -21.716      83.846    -162.066
  N      -21.281      84.812    -161.198
  O      -23.561      85.678    -166.695
  O      -21.255      85.104    -167.688
  H      -17.882      87.490    -161.353
  H      -21.278      86.027    -168.007
  H      -20.746      84.382    -156.786
  H      -21.819      84.018    -163.124
  H      -21.182      86.813    -160.675
  H      -18.747      85.511    -161.277
  H      -19.404      85.117    -163.593
  H      -20.346      88.054    -163.594
  H      -22.034      87.286    -165.201
  H      -22.376      80.400    -158.099
  H      -22.648      80.502    -159.839
  H      -20.409      86.988    -165.852
  P      -16.753      85.822    -163.554
  C      -14.512      85.594    -164.897
  O      -15.777      86.210    -164.767
  O      -17.008      84.368    -163.379
  O      -16.050      86.508    -162.291
  H      -15.712      87.412    -162.442
  H      -14.087      85.870    -165.864
  H      -14.603      84.504    -164.858
  H      -13.846      85.940    -164.106
  H      -23.446      81.604    -166.920
  H      -23.293      82.803    -168.181
  H      -24.447      83.036    -166.890

 3  4  5  6  7  8  9  10  11  12  22  25  29  30  31  32 0
 6-311+G(2d,p)
 ****
 33  36  37 0
 6-311+G(2d,p)
 ****
 1  2  13  14  15  16  17  18  19  20  21  23  24  26 0
 3-21G
 ****
 27  28  34  35  38  39  40  41  42  43  44  45  46  47  48 0
 3-21G
 ****


