%nproc=1
%NoSave
%Mem=1900MB
#P OB98/GEN NMR

erre ene a

0 1
  C     -339.727    -352.389     213.834
  O     -339.071    -351.681     214.895
  P     -339.463    -350.188     215.331
  C     -338.905    -350.306     217.849
  O     -338.562    -349.747     216.587
  C     -338.303    -351.702     218.036
  O     -336.877    -351.680     217.721
  C     -338.451    -352.273     219.460
  O     -338.719    -353.674     219.313
  C     -337.067    -352.028     220.041
  O     -336.779    -352.811     221.184
  C     -336.206    -352.346     218.817
  N     -334.815    -351.921     218.899
  C     -334.015    -352.511     219.890
  O     -334.476    -353.313     220.696
  N     -332.689    -352.151     219.955
  C     -332.199    -351.286     219.122
  N     -330.878    -350.991     219.240
  C     -333.009    -350.630     218.084
  C     -334.291    -350.995     218.029
  O     -340.928    -349.994     215.559
  O     -338.950    -349.245     214.142
  H     -339.575    -348.505     214.028
  H     -335.950    -352.480     221.575
  H     -332.563    -349.924     217.402
  H     -334.949    -350.577     217.267
  H     -336.250    -353.422     218.611
  H     -336.992    -350.974     220.335
  H     -339.265    -351.816     220.033
  H     -338.771    -352.373     217.307
  H     -330.355    -351.469     219.960
  H     -339.996    -350.383     217.908
  H     -330.395    -350.339     218.638
  H     -338.565    -349.635     218.643
  P     -340.031    -354.301     219.987
  C     -339.785    -356.534     218.670
  O     -339.890    -355.897     219.927
  O     -341.142    -354.027     218.866
  O     -340.454    -353.709     221.291
  H     -342.023    -353.988     219.288
  H     -338.989    -357.288     218.724
  H     -339.539    -355.836     217.865
  H     -340.729    -357.028     218.437
  H     -339.292    -353.361     213.732
  H     -339.610    -351.848     212.918
  H     -340.768    -352.486     214.060

 3  4  5  6  7  8  9  10  11  12  13  24  27  28  29  30  32 0
 6-311+G(2d,p)
 ****
 34  35 0
 6-311+G(2d,p)
 ****
 1  2  14  15  16  17  18  19  20  21  22  23  25  26 0
 3-21G
 ****
 31  33  36  37  38  39  40  41  42  43  44  45  46 0
 3-21G
 ****


