%nproc=1
%NoSave
%Mem=1900MB
#P OB98/GEN NMR

erre ene a

0 1
  C     -294.591     316.452    -389.559
  O     -295.857     316.861    -389.054
  P     -296.673     318.046    -389.767
  C     -296.898     320.573    -389.329
  O     -296.066     319.423    -389.197
  C     -296.195     321.810    -388.772
  O     -296.248     321.766    -387.323
  C     -294.723     321.902    -389.173
  O     -294.395     323.282    -389.376
  C     -293.970     321.408    -387.954
  O     -292.642     321.962    -387.898
  C     -294.901     321.840    -386.818
  N     -292.981     321.393    -382.077
  C     -292.932     322.403    -382.976
  N     -293.440     322.443    -384.226
  C     -294.106     321.310    -384.500
  C     -294.252     320.203    -383.683
  C     -293.649     320.265    -382.416
  N     -293.714     319.240    -381.495
  N     -294.981     319.221    -384.325
  C     -295.288     319.731    -385.492
  N     -294.793     321.003    -385.645
  O     -298.159     317.936    -389.667
  O     -296.173     318.029    -391.281
  H     -292.219     321.609    -387.086
  H     -296.917     318.214    -391.890
  H     -292.401     323.292    -382.648
  H     -295.855     319.238    -386.264
  H     -294.713     322.883    -386.520
  H     -293.875     320.313    -387.996
  H     -294.487     321.324    -390.078
  H     -296.745     322.701    -389.099
  H     -297.821     320.398    -388.771
  H     -293.356     319.425    -380.576
  H     -294.351     318.472    -381.682
  H     -297.158     320.714    -390.387
  P     -293.694     323.629    -390.790
  C     -291.350     323.059    -391.785
  O     -292.301     322.837    -390.759
  O     -293.634     325.108    -391.032
  O     -294.622     322.821    -391.808
  H     -295.071     322.065    -391.363
  H     -290.496     322.403    -391.612
  H     -291.009     324.100    -391.765
  H     -291.788     322.836    -392.763
  H     -294.206     315.656    -388.956
  H     -293.913     317.279    -389.533
  H     -294.702     316.113    -390.568

 3  4  5  6  7  8  9  10  11  12  22  25  29  30  31  32 0
 6-311+G(2d,p)
 ****
 33  36  37 0
 6-311+G(2d,p)
 ****
 1  2  13  14  15  16  17  18  19  20  21  23  24  26 0
 3-21G
 ****
 27  28  34  35  38  39  40  41  42  43  44  45  46  47  48 0
 3-21G
 ****


