%nproc=1
%NoSave
%Mem=1900MB
#P OB98/GEN NMR

erre ene a

0 1
  C      342.128    -860.057     982.045
  O      341.336    -860.290     983.186
  H      341.476    -859.994     981.164
  H      342.839    -860.871     981.890
  H      342.665    -859.106     982.142
  P      342.065    -860.538     984.589
  C      340.348    -859.160     985.942
  O      340.926    -860.432     985.720
  C      339.254    -859.231     987.019
  O      338.173    -860.086     986.542
  C      339.744    -859.839     988.355
  O      338.973    -859.247     989.407
  C      339.380    -861.304     988.171
  O      339.436    -862.005     989.393
  C      338.014    -861.164     987.485
  N      337.582    -862.400     986.858
  C      337.093    -863.396     987.710
  O      337.065    -863.218     988.925
  N      336.682    -864.586     987.159
  C      336.801    -864.790     985.886
  N      336.392    -865.990     985.414
  C      337.365    -863.778     984.957
  C      337.729    -862.619     985.509
  O      343.287    -859.707     984.841
  O      342.413    -862.108     984.580
  H      338.923    -862.848     989.337
  H      343.368    -862.228     984.409
  H      337.455    -864.002     983.900
  H      338.151    -861.812     984.916
  H      337.244    -860.859     988.220
  H      340.090    -861.803     987.498
  H      340.814    -859.676     988.534
  H      338.833    -858.231     987.173
  H      336.013    -866.668     986.074
  H      339.898    -858.831     984.995
  H      336.465    -866.273     984.432
  H      341.106    -858.432     986.242
  P      339.585    -858.885     990.837
  C      339.476    -856.305     991.020
  O      338.897    -857.552     991.401
  O      341.092    -858.853     990.875
  O      339.039    -860.036     991.834
  H      339.696    -860.195     992.529
  H      338.922    -855.504     991.463
  H      339.449    -856.210     989.955
  H      340.491    -856.265     991.356

 6  7  8  9  10  11  12  13  14  15  16  26  30  31  32  33  35 0
 6-311+G(2d,p)
 ****
 37  38 0
 6-311+G(2d,p)
 ****
 1  2  3  4  5  17  18  19  20  21  22  23  24  25 0
 3-21G
 ****
 27  28  29  34  36  39  40  41  42  43  44  45  46 0
 3-21G
 ****


