%nproc=1
%NoSave
%Mem=1900MB
#P OB98/GEN NMR

erre ene a

0 1
  C     -106.464    -222.686    -437.778
  O     -107.376    -221.865    -438.479
  H     -106.717    -222.663    -436.714
  H     -105.445    -222.309    -437.904
  H     -106.527    -223.718    -438.135
  P     -107.203    -221.793    -440.073
  C     -108.658    -223.948    -440.134
  O     -107.508    -223.269    -440.626
  C     -109.111    -224.996    -441.147
  O     -110.345    -225.600    -440.694
  C     -109.414    -224.438    -442.533
  O     -108.232    -224.220    -443.285
  C     -110.305    -225.530    -443.105
  O     -109.534    -226.611    -443.645
  C     -111.081    -226.008    -441.868
  N     -115.740    -226.364    -443.904
  C     -114.611    -227.082    -444.100
  N     -113.408    -226.931    -443.499
  C     -113.449    -225.929    -442.608
  C     -114.524    -225.109    -442.307
  C     -115.720    -225.357    -442.998
  N     -116.858    -224.608    -442.823
  N     -114.160    -224.161    -441.370
  C     -112.895    -224.409    -441.105
  N     -112.426    -225.471    -441.826
  O     -105.618    -221.643    -440.253
  O     -107.951    -220.692    -440.746
  H     -110.169    -227.322    -443.864
  H     -105.389    -220.696    -440.338
  H     -114.680    -227.876    -444.840
  H     -112.276    -223.847    -440.411
  H     -111.167    -227.101    -441.831
  H     -110.936    -225.151    -443.908
  H     -109.996    -223.511    -442.450
  H     -108.349    -225.781    -441.202
  H     -109.467    -223.224    -439.978
  H     -108.413    -224.418    -439.176
  H     -117.673    -224.829    -443.372
  H     -116.822    -223.789    -442.230
  P     -108.370    -223.852    -444.837
  C     -109.067    -221.424    -444.222
  O     -109.367    -222.602    -444.953
  O     -109.221    -225.070    -445.431
  O     -107.073    -223.675    -445.554
  H     -108.633    -225.709    -445.880
  H     -109.823    -220.689    -444.405
  H     -108.116    -221.044    -444.533
  H     -109.036    -221.651    -443.177

 6  7  8  9  10  11  12  13  14  15  25  28  32  33  34  35 0
 6-311+G(2d,p)
 ****
 36  37  40 0
 6-311+G(2d,p)
 ****
 1  2  3  4  5  16  17  18  19  20  21  22  23  24 0
 3-21G
 ****
 26  27  29  30  31  38  39 41  42  43  44  45  46  47  48 0
 3-21G
 ****


