%nproc=1
%NoSave
%Mem=1900MB
#P OB98/GEN NMR

erre ene a

0 1
  C     -176.755     329.756    -125.893
  O     -177.831     329.008    -125.298
  P     -179.377     329.374    -125.515
  C     -179.227     328.534    -127.948
  O     -179.966     328.509    -126.736
  C     -180.030     327.939    -129.117
  O     -180.517     326.604    -128.758
  C     -181.252     328.773    -129.545
  O     -181.322     328.691    -130.971
  C     -182.398     328.017    -128.884
  O     -183.670     328.313    -129.436
  C     -181.924     326.571    -129.109
  N     -182.620     325.552    -128.332
  C     -182.818     324.299    -128.934
  O     -182.477     324.085    -130.098
  N     -183.436     323.310    -128.198
  C     -183.822     323.547    -126.982
  N     -184.414     322.525    -126.308
  C     -183.648     324.848    -126.318
  C     -183.046     325.794    -127.039
  O     -179.640     330.844    -125.648
  O     -180.141     328.787    -124.229
  H     -180.876     329.388    -123.988
  H     -184.342     327.812    -128.927
  H     -183.977     325.001    -125.302
  H     -182.852     326.774    -126.608
  H     -181.982     326.333    -130.172
  H     -182.427     328.277    -127.818
  H     -181.185     329.825    -129.248
  H     -179.344     327.801    -129.967
  H     -184.507     321.632    -126.797
  H     -178.313     327.944    -127.815
  H     -184.745     322.589    -125.362
  H     -178.942     329.568    -128.176
  P     -181.054     330.007    -131.856
  C     -178.469     329.732    -131.853
  O     -179.656     329.810    -132.613
  O     -180.683     331.089    -130.735
  O     -182.211     330.499    -132.673
  H     -180.883     331.980    -131.064
  H     -177.851     328.906    -132.239
  H     -178.658     329.546    -130.792
  H     -177.905     330.667    -131.960
  H     -175.819     329.325    -125.605
  H     -176.798     330.771    -125.557
  H     -176.848     329.729    -126.959

 3  4  5  6  7  8  9  10  11  12  13  24  27  28  29  30  32 0
 6-311+G(2d,p)
 ****
 34  35 0
 6-311+G(2d,p)
 ****
 1  2  14  15  16  17  18  19  20  21  22  23  25  26 0
 3-21G
 ****
 31  33  36  37  38  39  40  41  42  43  44  45  46 0
 3-21G
 ****


