%nproc=1
%NoSave
%Mem=1900MB
#P OB98/GEN NMR

erre ene a

0 1
  C      398.746    -549.355      26.608
  O      397.404    -549.213      27.029
  H      398.753    -549.626      25.551
  H      399.243    -550.140      27.178
  H      399.280    -548.408      26.735
  P      397.170    -548.920      28.593
  C      394.734    -548.320      27.877
  O      395.577    -549.041      28.765
  C      393.287    -548.779      28.037
  O      392.898    -548.741      29.432
  C      392.263    -547.904      27.318
  O      392.201    -548.156      25.919
  C      390.997    -548.349      28.025
  O      390.611    -549.652      27.555
  C      391.485    -548.401      29.489
  N      391.285    -547.138      30.208
  C      389.991    -546.882      30.673
  O      389.080    -547.684      30.475
  N      389.748    -545.693      31.322
  C      390.713    -544.850      31.515
  N      390.409    -543.691      32.160
  C      392.095    -545.090      31.054
  C      392.308    -546.235      30.417
  O      397.420    -547.345      28.714
  O      397.970    -549.752      29.542
  H      389.886    -549.953      28.135
  H      397.152    -547.031      29.616
  H      392.866    -544.346      31.227
  H      393.299    -546.480      30.051
  H      390.981    -549.204      30.044
  H      390.148    -547.684      27.854
  H      392.429    -546.845      27.511
  H      393.231    -549.815      27.711
  H      389.439    -543.534      32.411
  H      395.078    -548.509      26.851
  H      391.053    -542.914      32.226
  H      394.804    -547.248      28.081
  P      392.568    -546.938      24.939
  C      393.245    -548.686      23.140
  O      392.508    -547.508      23.443
  O      394.131    -546.721      25.193
  O      391.788    -545.684      25.176
  H      394.376    -545.775      25.117
  H      393.105    -548.939      22.110
  H      392.900    -549.491      23.755
  H      394.284    -548.515      23.327

 6  7  8  9  10  11  12  13  14  15  16  26  30  31  32  33  35 0
 6-311+G(2d,p)
 ****
 37  38 0
 6-311+G(2d,p)
 ****
 1  2  3  4  5  17  18  19  20  21  22  23  24  25 0
 3-21G
 ****
 27  28  29  34  36  39  40  41  42  43  44  45  46 0
 3-21G
 ****


