%nproc=1
%NoSave
%Mem=1900MB
#P OB98/GEN NMR

erre ene a

0 1
  C       -6.621     -74.755     144.507
  O       -7.505     -74.475     145.574
  H       -7.037     -75.570     143.909
  H       -5.649     -75.065     144.897
  H       -6.500     -73.875     143.869
  P       -7.141     -73.228     146.513
  C       -7.680     -71.358     144.783
  O       -8.037     -71.999     145.999
  C       -8.817     -70.442     144.326
  O       -9.997     -71.256     144.085
  C       -9.196     -69.381     145.366
  O       -9.549     -68.171     144.690
  C      -10.423     -69.973     146.037
  O      -11.263     -69.005     146.649
  C      -11.081     -70.694     144.856
  N      -12.008     -71.740     145.282
  C      -13.253     -71.783     144.663
  O      -13.600     -71.054     143.734
  N      -14.126     -72.720     145.156
  C      -13.891     -73.574     146.193
  O      -14.722     -74.375     146.603
  C      -12.562     -73.475     146.812
  C      -11.696     -72.576     146.337
  O       -5.665     -72.827     146.040
  O       -7.223     -73.479     147.981
  H       -4.996     -73.306     146.564
  H      -12.027     -69.474     147.043
  H      -15.033     -72.765     144.717
  H      -12.341     -74.132     147.644
  H      -10.712     -72.468     146.781
  H      -11.603     -69.975     144.212
  H      -10.118     -70.691     146.807
  H       -8.397     -69.183     146.083
  H       -8.541     -69.981     143.371
  H       -7.498     -72.118     144.016
  H       -6.764     -70.778     144.936
  P       -8.362     -67.148     144.336
  C       -7.844     -67.794     141.856
  O       -8.462     -66.889     142.753
  O       -7.078     -68.082     144.507
  O       -8.375     -65.923     145.189
  H       -7.223     -68.998     144.211
  H       -8.010     -67.469     140.850
  H       -8.262     -68.770     141.989
  H       -6.792     -67.827     142.051

 6  7  8  9  10  11  12  13  14  15  16  27  31  32  33  34  35 0
 6-311+G(2d,p)
 ****
 36  37 0
 6-311+G(2d,p)
 ****
 1  2  3  4  5  17  18  19  20  21  22  23  24  25 0
 3-21G
 ****
 26  28  29  30  38  39  40  41  42  43  44  45 0
 3-21G
 ****


