%nproc=1
%NoSave
%Mem=1900MB
#P OB98/GEN NMR

erre ene a

0 1
  C     -299.048    -106.273     849.379
  O     -298.963    -105.972     850.758
  H     -299.860    -106.990     849.226
  H     -298.117    -106.716     849.033
  H     -299.272    -105.365     848.806
  P     -297.801    -104.981     851.269
  C     -299.218    -104.011     853.201
  O     -298.052    -104.738     852.838
  C     -299.588    -104.275     854.661
  O     -300.075    -105.639     854.748
  C     -298.383    -104.112     855.610
  O     -298.640    -103.251     856.705
  C     -298.006    -105.568     855.930
  O     -297.348    -105.752     857.158
  C     -299.349    -106.322     855.794
  N     -299.217    -107.745     855.489
  C     -298.644    -108.554     856.455
  O     -298.253    -108.175     857.560
  N     -298.527    -109.893     856.124
  C     -298.897    -110.449     854.941
  O     -298.771    -111.644     854.688
  C     -299.479    -109.528     853.930
  C     -299.594    -108.240     854.255
  O     -297.616    -103.737     850.466
  O     -296.480    -105.899     851.264
  H     -297.884    -105.313     857.846
  H     -295.921    -105.655     850.493
  H     -298.132    -110.486     856.828
  H     -299.770    -109.956     852.983
  H     -300.006    -107.535     853.528
  H     -299.923    -106.226     856.716
  H     -297.335    -105.935     855.146
  H     -297.539    -103.645     855.087
  H     -300.420    -103.613     854.947
  H     -300.035    -104.324     852.534
  H     -299.052    -102.930     853.047
  P     -298.103    -101.748     856.824
  C     -300.401    -100.518     856.398
  O     -299.311    -100.805     857.292
  O     -297.256    -101.264     855.689
  O     -297.161    -101.782     858.144
  H     -296.453    -101.125     857.992
  H     -301.104     -99.876     856.887
  H     -300.885    -101.431     856.121
  H     -300.025    -100.033     855.521

 6  7  8  9  10  11  12  13  14  15  16  26  31  32  33  34  35 0
 6-311+G(2d,p)
 ****
 36  37 0
 6-311+G(2d,p)
 ****
 1  2  3  4  5  17  18  19  20  21  22  23  24  25 0
 3-21G
 ****
 27  28  29  30  38  39  40  41  42  43  44  45 0
 3-21G
 ****


