%nproc=1
%NoSave
%Mem=1900MB
#P OB98/GEN NMR

erre ene a

0 1
  C      559.447    -255.466     148.603
  O      559.605    -255.412     150.024
  P      559.573    -254.050     150.867
  C      558.080    -255.492     152.414
  O      558.946    -254.365     152.313
  C      557.519    -255.627     153.833
  O      558.538    -256.136     154.733
  C      557.083    -254.322     154.487
  O      555.868    -253.831     153.945
  C      556.995    -254.732     155.959
  O      555.737    -255.346     156.255
  C      558.133    -255.772     156.064
  N      559.259    -255.293     156.856
  C      558.993    -254.900     158.164
  O      557.835    -254.881     158.587
  N      560.046    -254.521     158.964
  C      561.239    -254.441     158.461
  N      562.245    -254.076     159.313
  C      561.549    -254.714     157.047
  C      560.519    -255.144     156.308
  O      558.906    -252.910     150.162
  O      561.112    -253.714     151.183
  H      561.212    -252.749     151.313
  H      555.045    -254.686     156.035
  H      562.543    -254.610     156.663
  H      560.650    -255.383     155.256
  H      557.744    -256.695     156.516
  H      557.113    -253.873     156.627
  H      557.877    -253.568     154.360
  H      556.686    -256.341     153.810
  H      562.003    -253.906     160.273
  H      558.656    -256.389     152.175
  H      563.217    -254.009     159.026
  H      557.269    -255.393     151.677
  P      555.985    -252.771     152.741
  C      553.499    -253.164     152.043
  O      554.498    -252.238     152.424
  O      556.331    -253.691     151.465
  O      557.007    -251.707     152.938
  H      556.973    -253.226     150.897
  H      552.530    -252.764     152.331
  H      553.647    -254.132     152.515
  H      553.523    -253.278     150.955
  H      559.506    -256.483     148.276
  H      560.223    -254.896     148.136
  H      558.494    -255.059     148.334

 3  4  5  6  7  8  9  10  11  12  13  24  27  28  29  30  32 0
 6-311+G(2d,p)
 ****
 34  35 0
 6-311+G(2d,p)
 ****
 1  2  14  15  16  17  18  19  20  21  22  23  25  26 0
 3-21G
 ****
 31  33  36  37  38  39  40  41  42  43  44  45  46 0
 3-21G
 ****


