%nproc=1
%NoSave
%Mem=1900MB
#P OB98/GEN NMR

erre ene a

0 1
  C     -280.853    1057.911     -99.850
  O     -281.065    1059.219    -100.354
  H     -279.814    1057.628    -100.040
  H     -281.503    1057.196    -100.361
  H     -281.032    1057.877     -98.772
  P     -282.491    1059.912    -100.113
  C     -281.677    1062.112     -99.069
  O     -282.252    1061.500    -100.217
  C     -280.396    1062.852     -99.446
  O     -279.370    1061.889     -99.754
  C     -280.555    1063.781    -100.665
  O     -279.775    1064.952    -100.444
  C     -279.943    1062.963    -101.795
  O     -279.451    1063.793    -102.843
  C     -278.866    1062.181    -101.078
  N     -275.029    1059.313    -102.704
  C     -275.016    1060.455    -101.937
  N     -273.806    1060.940    -101.575
  N     -276.103    1061.096    -101.571
  C     -277.249    1060.501    -101.993
  C     -277.385    1059.367    -102.762
  C     -276.184    1058.688    -103.176
  O     -276.129    1057.667    -103.870
  N     -278.715    1059.101    -103.013
  C     -279.372    1060.075    -102.398
  N     -278.523    1060.953    -101.778
  O     -283.226    1059.474     -98.892
  O     -283.309    1059.582    -101.450
  H     -280.102    1064.514    -102.972
  H     -283.923    1058.838    -101.306
  H     -274.157    1058.875    -102.969
  H     -280.444    1060.181    -102.387
  H     -277.918    1062.751    -100.965
  H     -280.702    1062.297    -102.222
  H     -272.935    1060.499    -101.806
  H     -281.593    1064.054    -100.862
  H     -273.779    1061.767    -100.993
  H     -280.045    1063.420     -98.571
  H     -281.451    1061.336     -98.335
  H     -282.400    1062.814     -98.626
  P     -280.289    1066.345    -101.042
  C     -282.673    1066.555    -100.074
  O     -281.312    1066.997    -100.001
  O     -280.776    1066.304    -102.462
  O     -278.998    1067.300    -100.906
  H     -279.012    1067.954    -101.614
  H     -283.253    1067.062     -99.331
  H     -282.715    1065.500     -99.901
  H     -283.067    1066.773    -101.044

 6  7  8  9  10  11  12  13  14  15  26  29  33  34 0
 6-311+G(2d,p)
 ****
 36  38  39  40  41 0
 6-311+G(2d,p)
 ****
 1  2  3  4  5  16  17  18  19  20  21  22  23  24  25 0
 3-21G
 ****
 27  28  30  31  32  35  37  42  43  44  45  46  47 0
 3-21G
 ****
 48  49 0
 3-21G
 ****


