%nproc=1
%NoSave
%Mem=1900MB
#P OB98/GEN NMR

erre ene a

0 1
  C     -169.758      -8.793    -144.999
  O     -170.463      -8.327    -143.864
  H     -169.244      -7.949    -145.465
  H     -170.464      -9.213    -145.722
  H     -169.018      -9.548    -144.715
  P     -171.038      -9.432    -142.854
  C     -169.160      -8.879    -141.153
  O     -170.555      -9.017    -141.376
  C     -168.899      -8.182    -139.814
  O     -169.002      -6.745    -140.010
  C     -169.893      -8.572    -138.707
  O     -169.188      -8.660    -137.464
  C     -170.856      -7.396    -138.668
  O     -171.494      -7.252    -137.399
  C     -169.934      -6.238    -139.040
  N     -173.178      -2.561    -137.858
  C     -172.536      -3.477    -137.048
  N     -172.802      -3.411    -135.722
  N     -171.702      -4.382    -137.498
  C     -171.508      -4.308    -138.841
  C     -172.090      -3.452    -139.749
  C     -173.027      -2.471    -139.239
  O     -173.650      -1.652    -139.909
  N     -171.657      -3.712    -141.028
  C     -170.819      -4.726    -140.889
  N     -170.689      -5.117    -139.583
  O     -170.151     -10.726    -143.190
  O     -172.499      -9.722    -142.983
  H     -172.103      -6.484    -137.459
  H     -170.721     -11.430    -143.556
  H     -173.823      -1.893    -137.460
  H     -170.289      -5.215    -141.698
  H     -169.368      -5.862    -138.178
  H     -171.638      -7.535    -139.429
  H     -173.391      -2.711    -135.303
  H     -170.402      -9.517    -138.903
  H     -172.309      -4.052    -135.103
  H     -167.867      -8.389    -139.507
  H     -168.727      -8.285    -141.965
  H     -168.691      -9.871    -141.151
  P     -169.045     -10.117    -136.807
  C     -167.236     -11.250    -138.279
  O     -167.539     -10.633    -137.035
  O     -169.912     -11.042    -137.785
  O     -169.541     -10.195    -135.394
  H     -170.742     -11.307    -137.338
  H     -166.206     -11.541    -138.291
  H     -167.421     -10.559    -139.074
  H     -167.853     -12.115    -138.408

 6  7  8  9  10  11  12  13  14  15  26  29  33  34 0
 6-311+G(2d,p)
 ****
 36  38  39  40  41 0
 6-311+G(2d,p)
 ****
 1  2  3  4  5  16  17  18  19  20  21  22  23  24  25 0
 3-21G
 ****
 27  28  30  31  32  35  37  42  43  44  45  46  47 0
 3-21G
 ****
 48  49 0
 3-21G
 ****


