%nproc=1
%NoSave
%Mem=1900MB
#P OB98/GEN NMR

erre ene a

0 1
  C      343.647     272.343     110.028
  O      343.066     271.898     111.234
  H      344.484     271.686     109.777
  H      344.028     273.360     110.149
  H      342.918     272.313     109.214
  P      341.717     272.622     111.716
  C      341.574     270.589     113.328
  O      341.330     271.976     113.136
  C      340.493     269.979     114.219
  O      340.740     270.379     115.593
  C      339.073     270.412     113.850
  O      338.195     269.295     114.019
  C      338.741     271.474     114.881
  O      337.337     271.614     115.097
  C      339.533     270.981     116.100
  N      339.821     272.071     117.029
  C      338.901     272.280     118.057
  O      337.898     271.566     118.147
  N      339.100     273.321     118.928
  C      340.086     274.138     118.733
  N      340.215     275.169     119.613
  C      341.046     274.000     117.620
  C      340.861     272.949     116.817
  O      340.606     272.028     110.730
  O      341.751     274.113     111.703
  H      336.897     271.693     114.223
  H      339.900     272.680     110.558
  H      341.837     274.719     117.485
  H      341.509     272.770     115.972
  H      338.973     270.203     116.635
  H      339.129     272.445     114.545
  H      338.989     270.790     112.827
  H      340.590     268.886     114.184
  H      339.527     275.241     120.354
  H      342.549     270.463     113.812
  H      340.917     275.890     119.533
  H      341.597     270.088     112.355
  P      337.642     268.604     112.680
  C      338.497     266.253     113.389
  O      337.391     267.052     112.988
  O      338.917     268.602     111.714
  O      336.486     269.325     112.068
  H      338.797     269.251     111.000
  H      338.169     265.248     113.556
  H      338.913     266.647     114.293
  H      339.241     266.262     112.620

 6  7  8  9  10  11  12  13  14  15  16  26  30  31  32  33  35 0
 6-311+G(2d,p)
 ****
 37  38 0
 6-311+G(2d,p)
 ****
 1  2  3  4  5  17  18  19  20  21  22  23  24  25 0
 3-21G
 ****
 27  28  29  34  36  39  40  41  42  43  44  45  46 0
 3-21G
 ****


