%nproc=1
%NoSave
%Mem=1900MB
#P OB98/GEN NMR

erre ene a

0 1
  C      579.981     237.089     111.871
  O      579.719     238.464     111.628
  P      578.331     238.957     110.986
  C      579.259     238.844     108.567
  O      578.742     239.666     109.590
  C      579.091     239.529     107.205
  O      579.694     238.685     106.183
  C      577.643     239.783     106.798
  O      577.612     241.023     106.070
  C      577.331     238.612     105.886
  O      576.236     238.876     105.003
  C      578.681     238.430     105.191
  N      578.843     237.101     104.612
  C      578.926     237.005     103.210
  O      578.840     238.004     102.506
  N      579.096     235.762     102.647
  C      579.101     234.700     103.400
  N      579.334     233.501     102.811
  C      578.899     234.748     104.868
  C      578.804     235.960     105.391
  O      577.479     239.777     111.871
  O      577.642     237.605     110.462
  H      576.574     239.381     104.247
  H      577.124     237.147     111.177
  H      578.876     233.842     105.446
  H      578.687     236.103     106.460
  H      578.819     239.186     104.407
  H      577.070     237.729     106.483
  H      576.956     239.860     107.659
  H      579.659     240.468     107.222
  H      579.633     233.528     101.831
  H      578.692     237.903     108.554
  H      579.659     232.710     103.340
  H      580.307     238.616     108.766
  P      576.668     242.205     106.606
  C      574.836     241.680     104.838
  O      575.691     242.648     105.414
  O      577.709     243.436     106.668
  O      576.048     241.992     107.952
  H      577.391     244.077     107.326
  H      574.248     242.156     104.050
  H      574.162     241.281     105.591
  H      575.428     240.872     104.390
  H      580.956     236.982     112.299
  H      579.935     236.549     110.949
  H      579.249     236.701     112.548

 3  4  5  6  7  8  9  10  11  12  13  23  27  28  29  30  32 0
 6-311+G(2d,p)
 ****
 34  35 0
 6-311+G(2d,p)
 ****
 1  2  14  15  16  17  18  19  20  21  22  24  25  26 0
 3-21G
 ****
 31  33  36  37  38  39  40  41  42  43  44  45  46 0
 3-21G
 ****


