%nproc=1
%NoSave
%Mem=1900MB
#P OB98/GEN NMR

erre ene a

0 1
  C      -25.300    -111.963     -22.809
  O      -26.371    -112.750     -22.308
  H      -24.941    -111.311     -22.008
  H      -25.635    -111.335     -23.638
  H      -24.479    -112.605     -23.137
  P      -27.175    -113.679     -23.341
  C      -28.867    -113.199     -25.241
  O      -27.859    -112.673     -24.380
  C      -29.984    -112.177     -25.428
  O      -29.454    -110.947     -25.966
  C      -31.051    -112.630     -26.410
  O      -31.909    -113.588     -25.821
  C      -31.698    -111.306     -26.764
  O      -32.622    -110.890     -25.750
  C      -30.471    -110.364     -26.808
  N      -29.967    -110.157     -28.164
  C      -29.194    -109.001     -28.360
  O      -28.970    -108.233     -27.420
  N      -28.718    -108.742     -29.622
  C      -28.967    -109.567     -30.593
  N      -28.477    -109.246     -31.820
  C      -29.766    -110.798     -30.423
  C      -30.229    -111.025     -29.198
  O      -28.109    -114.693     -22.754
  O      -26.016    -114.361     -24.213
  H      -32.710    -109.921     -25.850
  H      -25.728    -115.196     -23.799
  H      -29.947    -111.454     -31.258
  H      -30.824    -111.914     -28.988
  H      -30.716    -109.384     -26.377
  H      -32.247    -111.363     -27.705
  H      -30.584    -113.032     -27.317
  H      -30.419    -111.953     -24.443
  H      -27.937    -108.386     -31.892
  H      -29.261    -114.103     -24.757
  H      -28.526    -109.853     -32.626
  H      -28.440    -113.475     -26.209
  P      -32.853    -114.511     -26.736
  C      -34.873    -114.040     -28.268
  O      -34.052    -113.550     -27.206
  O      -33.271    -115.805     -26.123
  O      -31.993    -114.698     -28.075
  H      -31.243    -115.321     -27.942
  H      -35.632    -113.320     -28.493
  H      -35.331    -114.960     -27.969
  H      -34.271    -114.207     -29.136

 6  7  8  9  10  11  12  13  14  15  16  26  30  31  32  33  35 0
 6-311+G(2d,p)
 ****
 37  38 0
 6-311+G(2d,p)
 ****
 1  2  3  4  5  17  18  19  20  21  22  23  24  25 0
 3-21G
 ****
 27  28  29  34  36  39  40  41  42  43  44  45  46 0
 3-21G
 ****


