%nproc=1
%NoSave
%Mem=1900MB
#P OB98/GEN NMR

erre ene a

0 1
  C     -122.432     -65.832    -626.298
  O     -121.241     -65.057    -626.397
  P     -119.921     -65.725    -625.759
  C     -118.714     -65.686    -623.463
  O     -119.868     -65.316    -624.207
  C     -119.102     -66.178    -622.066
  O     -119.861     -65.148    -621.345
  C     -119.976     -67.453    -622.068
  O     -119.602     -68.217    -620.918
  C     -121.373     -66.881    -621.897
  O     -122.331     -67.858    -621.509
  C     -121.088     -65.772    -620.886
  N     -125.598     -64.778    -618.712
  C     -124.776     -65.853    -618.650
  N     -123.596     -66.036    -619.266
  C     -123.273     -64.973    -620.008
  C     -124.005     -63.805    -620.192
  C     -125.224     -63.728    -619.495
  N     -126.086     -62.653    -619.577
  N     -123.352     -62.943    -621.049
  C     -122.274     -63.604    -621.444
  N     -122.153     -64.802    -620.780
  O     -118.722     -64.892    -626.420
  O     -119.813     -67.192    -626.019
  H     -123.222     -67.455    -621.486
  H     -118.335     -65.392    -627.176
  H     -125.121     -66.672    -618.027
  H     -121.581     -63.284    -622.198
  H     -120.901     -66.165    -619.880
  H     -121.705     -66.458    -622.854
  H     -119.850     -68.071    -622.970
  H     -118.175     -66.363    -621.490
  H     -118.032     -64.829    -623.369
  H     -126.936     -62.688    -619.048
  H     -125.845     -61.852    -620.142
  H     -118.170     -66.469    -624.019
  P     -119.287     -69.782    -621.096
  C     -120.735     -71.914    -621.068
  O     -120.728     -70.503    -620.923
  O     -118.604     -70.121    -619.690
  O     -118.460     -70.162    -622.288
  H     -119.136     -69.780    -618.947
  H     -121.737     -72.276    -620.851
  H     -120.018     -72.373    -620.367
  H     -120.492     -72.180    -622.106
  H     -123.243     -65.299    -626.750
  H     -122.655     -66.013    -625.267
  H     -122.293     -66.765    -626.803

 3  4  5  6  7  8  9  10  11  12  22  25  29  30  31  32 0
 6-311+G(2d,p)
 ****
 33  36  37 0
 6-311+G(2d,p)
 ****
 1  2  13  14  15  16  17  18  19  20  21  23  24  26 0
 3-21G
 ****
 27  28  34  35  38  39  40  41  42  43  44  45  46  47  48 0
 3-21G
 ****


