%nproc=1
%NoSave
%Mem=1900MB
#P OB98/GEN NMR

erre ene a

0 1
  C     -415.772     229.468    -116.915
  O     -415.496     228.821    -118.143
  H     -415.068     230.298    -116.757
  H     -416.788     229.870    -116.940
  H     -415.686     228.749    -116.084
  P     -414.007     228.260    -118.336
  C     -411.639     229.322    -118.348
  O     -413.041     229.550    -118.363
  C     -410.969     230.044    -119.501
  O     -411.376     231.440    -119.538
  C     -409.447     230.081    -119.453
  O     -408.877     228.857    -119.884
  C     -409.156     231.205    -120.423
  O     -409.223     230.718    -121.776
  C     -410.311     232.186    -120.170
  N     -407.086     236.136    -119.469
  C     -407.171     235.186    -120.440
  N     -408.044     234.162    -120.550
  C     -408.918     234.174    -119.539
  C     -408.960     235.050    -118.461
  C     -407.981     236.075    -118.451
  N     -407.898     237.014    -117.437
  N     -409.999     234.752    -117.614
  C     -410.584     233.709    -118.158
  N     -409.954     233.302    -119.315
  O     -413.998     227.751    -119.860
  O     -413.604     227.179    -117.392
  H     -408.467     230.100    -121.895
  H     -413.431     226.964    -119.924
  H     -406.433     235.274    -121.226
  H     -411.456     233.207    -117.746
  H     -410.721     232.580    -121.104
  H     -408.169     231.653    -120.293
  H     -409.099     230.368    -118.448
  H     -411.312     229.582    -120.451
  H     -411.435     228.247    -118.441
  H     -407.315     237.824    -117.589
  H     -408.581     236.978    -116.688
  H     -411.235     229.681    -117.386
  P     -407.590     228.310    -119.073
  C     -405.268     229.320    -118.511
  O     -406.441     229.413    -119.315
  O     -407.108     227.070    -119.952
  O     -407.856     227.923    -117.644
  H     -406.615     226.438    -119.396
  H     -404.593     230.107    -118.773
  H     -404.795     228.375    -118.678
  H     -405.535     229.408    -117.479

 6  7  8  9  10  11  12  13  14  15  25  28  32  33  34  35 0
 6-311+G(2d,p)
 ****
 36  39  40 0
 6-311+G(2d,p)
 ****
 1  2  3  4  5  16  17  18  19  20  21  22  23  24 0
 3-21G
 ****
 26  27  29  30  31  37  38  41  42  43  44  45  46  47  48 0
 3-21G
 ****


