%nproc=1
%NoSave
%Mem=1900MB
#P OB98/GEN NMR

erre ene a

0 1
  C     -446.236      45.605    -414.087
  O     -446.316      47.019    -414.101
  P     -447.104      47.769    -415.274
  C     -448.149      49.713    -413.955
  O     -448.392      48.488    -414.642
  C     -448.655      49.630    -412.521
  O     -448.115      48.465    -411.852
  C     -448.248      50.811    -411.648
  O     -448.969      51.981    -411.966
  C     -448.509      50.246    -410.255
  O     -449.902      50.335    -409.923
  C     -448.093      48.768    -410.434
  N     -446.790      48.485    -409.850
  C     -446.772      48.240    -408.471
  O     -447.804      48.349    -407.805
  N     -445.588      47.882    -407.883
  C     -444.493      47.894    -408.578
  N     -443.359      47.474    -407.956
  C     -444.443      48.304    -410.001
  C     -445.624      48.560    -410.571
  O     -447.382      46.940    -416.486
  O     -446.157      49.010    -415.642
  H     -446.023      49.026    -416.612
  H     -450.007      49.922    -409.044
  H     -443.496      48.365    -410.517
  H     -445.685      48.846    -411.612
  H     -448.835      48.109    -409.976
  H     -447.956      50.783    -409.476
  H     -447.173      50.993    -411.766
  H     -449.749      49.532    -412.545
  H     -443.428      47.187    -406.989
  H     -448.668      50.518    -414.484
  H     -442.546      47.141    -408.472
  H     -447.073      49.932    -413.971
  P     -448.288      52.988    -413.015
  C     -449.931      53.661    -414.899
  O     -448.972      52.731    -414.437
  O     -446.807      52.400    -413.188
  O     -448.258      54.419    -412.571
  H     -446.175      53.134    -413.293
  H     -450.038      53.553    -415.979
  H     -449.638      54.690    -414.673
  H     -450.900      53.446    -414.430
  H     -445.674      45.288    -413.233
  H     -445.751      45.266    -414.979
  H     -447.222      45.192    -414.038

 3  4  5  6  7  8  9  10  11  12  13  24  27  28  29  30  32 0
 6-311+G(2d,p)
 ****
 34  35 0
 6-311+G(2d,p)
 ****
 1  2  14  15  16  17  18  19  20  21  22  23  25  26 0
 3-21G
 ****
 31  33  36  37  38  39  40  41  42  43  44  45  46 0
 3-21G
 ****


