%nproc=1
%NoSave
%Mem=1900MB
#P OB98/GEN NMR

erre ene a

0 1
  C       82.227     294.535    -691.646
  O       83.134     293.670    -690.983
  P       84.039     292.613    -691.798
  C       83.195     290.652    -690.331
  O       84.312     291.409    -690.765
  C       83.667     289.334    -689.704
  O       84.065     288.432    -690.772
  C       84.857     289.466    -688.747
  O       84.675     288.499    -687.692
  C       86.036     289.107    -689.619
  O       87.163     288.691    -688.860
  C       85.427     288.014    -690.503
  N       86.176     287.810    -691.743
  C       87.306     286.990    -691.690
  O       87.659     286.490    -690.632
  N       88.005     286.763    -692.847
  C       87.651     287.369    -693.943
  N       88.340     287.054    -695.074
  C       86.528     288.325    -694.018
  C       85.830     288.471    -692.890
  O       85.259     293.188    -692.431
  O       83.010     291.942    -692.827
  H       86.893     287.944    -688.280
  H       82.907     292.457    -693.663
  H       86.298     288.821    -694.949
  H       84.972     289.136    -692.867
  H       85.353     287.067    -689.939
  H       86.336     289.978    -690.217
  H       84.923     290.471    -688.299
  H       82.807     288.868    -689.192
  H       88.983     286.277    -695.019
  H       82.568     290.427    -691.202
  H       87.943     287.226    -696.003
  H       82.598     291.231    -689.620
  P       84.274     289.033    -686.231
  C       86.612     290.035    -685.725
  O       85.626     289.117    -685.358
  O       83.547     287.734    -685.616
  O       83.354     290.199    -686.168
  H       82.932     288.018    -684.922
  H       87.437     289.957    -685.029
  H       86.230     291.052    -685.693
  H       86.981     289.819    -686.737
  H       81.730     295.151    -690.926
  H       81.503     293.953    -692.177
  H       82.763     295.154    -692.335

 3  4  5  6  7  8  9  10  11  12  13  23  27  28  29  30  32 0
 6-311+G(2d,p)
 ****
 34  35 0
 6-311+G(2d,p)
 ****
 1  2  14  15  16  17  18  19  20  21  22  24  25  26 0
 3-21G
 ****
 31  33  36  37  38  39  40  41  42  43  44  45  46 0
 3-21G
 ****


