%nproc=1
%NoSave
%Mem=1900MB
#P OB98/GEN NMR

erre ene a

0 1
  C      135.072     130.955    -252.682
  O      135.451     132.293    -252.395
  P      134.435     133.206    -251.552
  C      136.003     134.360    -249.839
  O      135.265     134.485    -251.047
  C      136.073     135.693    -249.095
  O      137.085     136.531    -249.716
  C      134.764     136.490    -249.094
  O      134.700     137.200    -247.851
  C      134.966     137.482    -250.223
  O      134.107     138.612    -250.109
  C      136.453     137.781    -250.060
  N      139.424     141.465    -251.995
  C      139.053     141.184    -250.729
  N      138.259     140.184    -250.290
  C      137.834     139.431    -251.320
  C      138.102     139.616    -252.665
  C      138.944     140.691    -252.997
  N      139.333     140.974    -254.286
  N      137.466     138.656    -253.423
  C      136.825     137.905    -252.552
  N      137.038     138.321    -251.268
  O      134.219     132.348    -250.218
  O      133.139     133.503    -252.224
  H      133.184     138.303    -250.174
  H      133.304     132.006    -250.187
  H      139.451     141.846    -249.963
  H      136.198     137.059    -252.798
  H      136.644     138.492    -249.245
  H      134.760     136.995    -251.184
  H      133.866     135.877    -249.227
  H      136.402     135.496    -248.067
  H      137.021     134.043    -250.084
  H      140.045     141.672    -254.428
  H      139.138     140.296    -255.014
  H      135.544     133.596    -249.207
  P      133.412     136.940    -246.932
  C      135.195     136.656    -245.071
  O      133.894     137.093    -245.413
  O      133.154     135.368    -247.095
  O      132.214     137.741    -247.321
  H      132.208     135.172    -246.962
  H      135.587     137.301    -244.279
  H      135.877     136.692    -245.926
  H      135.143     135.631    -244.700
  H      135.846     130.478    -253.246
  H      134.165     130.955    -253.250
  H      134.919     130.423    -251.766

 3  4  5  6  7  8  9  10  11  12  22  25  29  30  31  32 0
 6-311+G(2d,p)
 ****
 33  36  37 0
 6-311+G(2d,p)
 ****
 1  2  13  14  15  16  17  18  19  20  21  23  24  26 0
 3-21G
 ****
 27  28  34  35  38  39  40  41  42  43  44  45  46  47  48 0
 3-21G
 ****


