%nproc=1
%NoSave
%Mem=1900MB
#P OB98/GEN NMR

erre ene a

0 1
  C      152.427      55.417     -18.286
  O      153.568      56.190     -17.980
  H      151.831      55.950     -19.031
  H      151.818      55.273     -17.391
  H      152.713      54.446     -18.700
  P      154.715      55.547     -17.064
  C      153.639      56.581     -14.961
  O      154.100      55.393     -15.592
  C      153.597      56.384     -13.449
  O      152.626      55.374     -13.104
  C      154.916      55.912     -12.847
  O      155.844      56.977     -12.766
  C      154.439      55.374     -11.507
  O      154.241      56.441     -10.568
  C      153.090      54.725     -11.899
  N      153.180      53.278     -12.086
  C      152.337      52.498     -11.301
  O      151.576      52.971     -10.459
  N      152.412      51.145     -11.505
  C      153.288      50.509     -12.337
  O      153.351      49.288     -12.443
  C      154.179      51.381     -13.114
  C      154.085      52.703     -12.957
  O      156.046      56.220     -17.121
  O      154.800      54.033     -17.577
  H      155.117      56.850     -10.423
  H      155.560      53.931     -18.179
  H      151.818      50.563     -10.937
  H      154.890      50.912     -13.781
  H      154.737      53.362     -13.519
  H      152.336      54.922     -11.127
  H      155.151      54.683     -11.053
  H      155.325      55.082     -13.434
  H      153.277      57.329     -12.990
  H      152.631      56.805     -15.328
  H      154.307      57.406     -15.227
  P      157.377      56.757     -13.164
  C      158.072      56.629     -10.703
  O      158.082      55.963     -11.958
  O      158.103      57.984     -13.608
  O      157.322      55.665     -14.333
  H      157.501      56.093     -15.194
  H      158.563      56.020      -9.972
  H      157.061      56.804     -10.400
  H      158.585      57.564     -10.791

 6  7  8  9  10  11  12  13  14  15  16  26  31  32  33  34  35 0
 6-311+G(2d,p)
 ****
 36  37 0
 6-311+G(2d,p)
 ****
 1  2  3  4  5  17  18  19  20  21  22  23  24  25 0
 3-21G
 ****
 27  28  29  30  38  39  40  41  42  43  44  45 0
 3-21G
 ****


