%nproc=1
%NoSave
%Mem=1900MB
#P OB98/GEN NMR

erre ene a

0 1
  C      -27.765    -203.691    -229.860
  O      -27.822    -203.353    -228.469
  P      -29.088    -203.913    -227.650
  C      -29.658    -201.540    -226.756
  O      -30.122    -202.699    -227.441
  C      -30.530    -201.210    -225.540
  O      -31.848    -200.811    -225.992
  C      -30.726    -202.369    -224.555
  O      -30.748    -201.840    -223.223
  C      -32.126    -202.863    -224.871
  O      -32.710    -203.565    -223.778
  C      -32.813    -201.545    -225.221
  N      -37.864    -201.632    -224.962
  C      -36.935    -201.290    -223.998
  N      -37.425    -200.945    -222.785
  N      -35.644    -201.287    -224.202
  C      -35.300    -201.621    -225.471
  C      -36.127    -201.969    -226.518
  C      -37.552    -202.008    -226.261
  O      -38.421    -202.353    -227.062
  N      -35.406    -202.243    -227.653
  C      -34.151    -202.072    -227.293
  N      -34.033    -201.701    -225.976
  O      -28.490    -204.175    -226.189
  O      -29.676    -205.158    -228.230
  H      -32.180    -204.373    -223.639
  H      -28.639    -205.103    -225.929
  H      -38.846    -201.638    -224.744
  H      -33.290    -202.223    -227.930
  H      -33.040    -200.961    -224.319
  H      -32.090    -203.542    -225.731
  H      -38.407    -200.865    -222.580
  H      -29.974    -203.159    -224.631
  H      -36.762    -200.648    -222.076
  H      -30.088    -200.348    -225.028
  H      -29.662    -200.690    -227.441
  H      -28.623    -201.712    -226.444
  P      -29.320    -201.503    -222.565
  C      -28.832    -203.642    -221.164
  O      -28.593    -202.917    -222.357
  O      -29.703    -201.048    -221.076
  O      -28.540    -200.463    -223.297
  H      -29.023    -200.438    -220.725
  H      -29.662    -203.230    -220.586
  H      -27.927    -203.619    -220.549
  H      -29.060    -204.679    -221.424
  H      -26.885    -203.265    -230.295
  H      -28.630    -203.305    -230.357
  H      -27.737    -204.755    -229.968

 3  4  5  6  7  8  9  10  11  12  23  26  30  31  33  0
 6-311+G(2d,p)
 ****
 35  36  37  38 0
 6-311+G(2d,p)
 ****
 1  2  13  14  15  16  17  18  19  20  21  22  24  25  27  28  29 0
 3-21G
 ****
 32  34  39  40  41  42  43  44  45  46  47  48  49 0
 3-21G
 ****


