%nproc=1
%NoSave
%Mem=1900MB
#P OB98/GEN NMR

erre ene a

0 1
  C     -339.102     398.904    -210.584
  O     -338.290     398.030    -211.381
  P     -337.965     398.468    -212.887
  C     -335.858     399.372    -214.123
  O     -336.576     399.269    -212.902
  C     -334.739     400.409    -214.005
  O     -335.257     401.737    -213.789
  C     -333.788     400.155    -212.842
  O     -332.805     399.184    -213.176
  C     -333.149     401.523    -212.679
  O     -332.113     401.699    -213.669
  C     -334.321     402.467    -212.965
  N     -334.193     405.802    -209.079
  C     -333.333     405.567    -210.095
  N     -333.426     404.652    -211.081
  C     -334.558     403.938    -210.957
  C     -335.526     404.060    -209.976
  C     -335.314     405.046    -208.998
  N     -336.194     405.281    -207.968
  N     -336.543     403.147    -210.171
  C     -336.199     402.493    -211.262
  N     -335.004     402.928    -211.770
  O     -339.051     399.613    -213.173
  O     -338.071     397.358    -213.879
  H     -331.329     401.211    -213.352
  H     -339.325     399.583    -214.106
  H     -332.450     406.204    -210.120
  H     -336.781     401.706    -211.723
  H     -334.011     403.357    -213.526
  H     -332.675     401.653    -211.702
  H     -334.344     399.887    -211.933
  H     -334.174     400.409    -214.947
  H     -336.539     399.643    -214.934
  H     -335.986     406.024    -207.319
  H     -337.042     404.736    -207.916
  H     -335.452     398.386    -214.382
  P     -332.924     397.748    -212.470
  C     -334.081     395.510    -213.108
  O     -333.825     396.856    -213.451
  O     -333.878     398.039    -211.220
  O     -331.620     397.158    -212.058
  H     -333.662     397.432    -210.484
  H     -334.930     395.152    -213.695
  H     -334.320     395.411    -212.045
  H     -333.204     394.898    -213.346
  H     -339.231     398.481    -209.610
  H     -340.058     399.026    -211.050
  H     -338.623     399.857    -210.498

 3  4  5  6  7  8  9  10  11  12  22  25  29  30  31  32 0
 6-311+G(2d,p)
 ****
 33  36  37 0
 6-311+G(2d,p)
 ****
 1  2  13  14  15  16  17  18  19  20  21  23  24  26 0
 3-21G
 ****
 27  28  34  35  38  39  40  41  42  43  44  45  46  47  48 0
 3-21G
 ****


