%nproc=1
%NoSave
%Mem=1900MB
#P OB98/GEN NMR

erre ene a

0 1
  C      173.418     562.108     277.443
  O      173.788     561.652     278.726
  H      173.639     561.322     276.717
  H      173.997     562.995     277.183
  H      172.352     562.333     277.394
  P      173.306     562.484     280.012
  C      171.986     560.488     280.969
  O      171.926     561.823     280.491
  C      171.089     560.305     282.195
  O      171.687     561.001     283.327
  C      169.670     560.857     282.014
  O      168.790     560.057     282.810
  C      169.798     562.245     282.615
  O      168.539     562.798     282.925
  C      170.719     561.955     283.805
  N      171.348     563.162     284.333
  C      170.520     564.061     284.992
  O      169.302     563.896     285.107
  N      171.117     565.194     285.470
  C      172.432     565.532     285.313
  O      172.906     566.578     285.740
  C      173.256     564.559     284.571
  C      172.682     563.438     284.123
  O      173.264     563.968     279.843
  O      174.322     562.048     281.169
  H      168.100     563.123     282.109
  H      174.442     562.777     281.803
  H      170.527     565.854     285.959
  H      174.294     564.805     284.416
  H      173.265     562.703     283.577
  H      170.159     561.484     284.624
  H      170.289     562.925     281.910
  H      169.339     560.874     280.976
  H      171.068     559.236     282.460
  H      173.026     560.271     281.235
  H      171.673     559.799     280.176
  P      167.552     559.253     282.172
  C      168.350     556.876     282.772
  O      168.054     557.801     281.722
  O      166.815     560.003     281.113
  O      166.586     558.939     283.417
  H      165.665     558.874     283.107
  H      168.673     555.948     282.349
  H      167.472     556.713     283.362
  H      169.126     557.275     283.391

 6  7  8  9  10  11  12  13  14  15  16  26  31  32  33  34  35 0
 6-311+G(2d,p)
 ****
 36  37 0
 6-311+G(2d,p)
 ****
 1  2  3  4  5  17  18  19  20  21  22  23  24  25 0
 3-21G
 ****
 27  28  29  30  38  39  40  41  42  43  44  45 0
 3-21G
 ****


