%nproc=1
%NoSave
%Mem=1900MB
#P OB98/GEN NMR

erre ene a

0 1
  C      288.630       0.546     304.185
  O      288.298       1.747     303.517
  H      287.706       0.084     304.552
  H      289.289       0.738     305.045
  H      289.118      -0.155     303.497
  P      289.500       2.649     302.946
  C      289.307       4.097     305.078
  O      290.175       3.387     304.204
  C      289.946       4.243     306.466
  O      291.373       4.368     306.272
  C      289.450       5.468     307.236
  O      288.950       5.173     308.539
  C      290.611       6.455     307.126
  O      290.682       7.403     308.167
  C      291.831       5.521     307.017
  N      292.985       6.137     306.361
  C      294.088       6.417     307.157
  O      294.188       6.172     308.356
  N      295.152       7.021     306.499
  C      295.198       7.346     305.185
  O      296.176       7.869     304.670
  C      293.986       7.033     304.394
  C      292.941       6.445     305.019
  O      289.124       3.558     301.816
  O      290.615       1.594     302.491
  H      291.278       8.115     307.886
  H      290.592       1.484     301.528
  H      295.957       7.225     307.088
  H      293.996       7.283     303.359
  H      292.045       6.205     304.470
  H      292.132       5.199     308.003
  H      290.506       7.011     306.176
  H      288.563       5.920     306.718
  H      289.772       3.312     307.033
  H      288.368       3.540     305.148
  H      289.099       5.090     304.662
  P      287.408       5.205     308.940
  C      287.270       7.420     310.352
  O      286.978       6.717     309.142
  O      287.008       4.238     310.023
  O      286.652       4.754     307.579
  H      285.843       4.257     307.871
  H      286.896       8.420     310.283
  H      288.329       7.445     310.503
  H      286.804       6.921     311.176

 6  7  8  9  10  11  12  13  14  15  16  26  31  32  33  34  35 0
 6-311+G(2d,p)
 ****
 36  37 0
 6-311+G(2d,p)
 ****
 1  2  3  4  5  17  18  19  20  21  22  23  24  25 0
 3-21G
 ****
 27  28  29  30  38  39  40  41  42  43  44  45 0
 3-21G
 ****


