%nproc=1
%NoSave
%Mem=1900MB
#P OB98/GEN NMR

erre ene a

0 1
  C      -29.626      78.797      40.500
  O      -30.571      77.872      40.999
  H      -29.085      79.234      41.342
  H      -30.144      79.595      39.962
  H      -28.910      78.303      39.838
  P      -31.243      76.876      39.934
  C      -30.289      75.187      38.210
  O      -30.054      76.348      38.993
  C      -29.522      75.273      36.895
  O      -29.993      76.390      36.110
  C      -28.018      75.465      37.055
  O      -27.354      74.228      37.277
  C      -27.660      76.038      35.694
  O      -27.628      74.978      34.713
  C      -28.849      76.968      35.418
  N      -29.190      81.866      34.148
  C      -29.406      80.736      33.384
  N      -29.755      80.940      32.096
  N      -29.287      79.515      33.838
  C      -28.909      79.463      35.137
  C      -28.658      80.510      35.994
  C      -28.810      81.853      35.484
  O      -28.640      82.888      36.124
  N      -28.296      80.067      37.239
  C      -28.305      78.754      37.128
  N      -28.667      78.337      35.872
  O      -32.063      77.875      38.987
  O      -32.129      75.828      40.515
  H      -26.872      74.405      34.937
  H      -33.008      77.832      39.227
  H      -29.285      82.782      33.747
  H      -28.066      78.064      37.925
  H      -29.100      77.018      34.353
  H      -26.677      76.511      35.681
  H      -29.843      81.852      31.677
  H      -27.782      76.197      37.836
  H      -29.923      80.125      31.519
  H      -29.736      74.361      36.322
  H      -31.361      75.107      38.004
  H      -29.965      74.306      38.774
  P      -25.833      74.263      37.784
  C      -24.654      75.124      39.927
  O      -25.794      75.206      39.084
  O      -25.110      75.144      36.661
  O      -25.181      72.932      37.935
  H      -24.500      74.585      36.140
  H      -24.766      75.803      40.746
  H      -23.778      75.381      39.368
  H      -24.558      74.126      40.302

 6  7  8  9  10  11  12  13  14  15  26  29  33  34 0
 6-311+G(2d,p)
 ****
 36  38  39  40  41 0
 6-311+G(2d,p)
 ****
 1  2  3  4  5  16  17  18  19  20  21  22  23  24  25 0
 3-21G
 ****
 27  28  30  31  32  35  37  42  43  44  45  46  47 0
 3-21G
 ****
 48  49 0
 3-21G
 ****


