%nproc=1
%NoSave
%Mem=1900MB
#P OB98/GEN NMR

erre ene a

0 1
  C      216.711     -43.303     106.219
  O      215.451     -42.865     106.697
  P      214.774     -41.595     105.994
  C      215.523     -39.722     107.628
  O      214.449     -40.514     107.135
  C      215.061     -38.834     108.787
  O      216.176     -38.051     109.278
  C      213.948     -37.851     108.399
  O      213.072     -37.654     109.521
  C      214.693     -36.553     108.175
  O      213.831     -35.421     108.332
  C      215.787     -36.663     109.234
  N      217.305     -31.930     108.307
  C      216.108     -32.382     108.826
  N      215.158     -31.444     109.051
  N      215.871     -33.631     109.112
  C      216.907     -34.456     108.828
  C      218.150     -34.123     108.324
  C      218.393     -32.736     108.003
  O      219.423     -32.279     107.515
  N      218.951     -35.229     108.211
  C      218.189     -36.236     108.599
  N      216.933     -35.821     108.950
  O      213.328     -42.145     105.578
  O      215.510     -41.074     104.807
  H      214.412     -34.643     108.454
  H      213.295     -42.301     104.616
  H      217.442     -30.952     108.091
  H      218.492     -37.276     108.622
  H      215.413     -36.394     110.230
  H      215.112     -36.524     107.161
  H      215.263     -30.472     108.790
  H      213.361     -38.152     107.523
  H      214.261     -31.754     109.388
  H      214.736     -39.482     109.611
  H      215.898     -39.087     106.821
  H      216.338     -40.378     107.957
  P      211.509     -37.923     109.245
  C      210.895     -35.618     110.290
  O      210.722     -37.020     110.310
  O      211.298     -39.419     109.780
  O      211.104     -37.762     107.820
  H      210.536     -39.833     109.328
  H      209.937     -35.144     110.054
  H      211.641     -35.299     109.551
  H      211.215     -35.286     111.281
  H      217.031     -44.154     106.784
  H      217.427     -42.515     106.326
  H      216.627     -43.571     105.187

 3  4  5  6  7  8  9  10  11  12  23  26  30  31 0
 6-311+G(2d,p)
 ****
 33  35  36  37  38 0
 6-311+G(2d,p)
 ****
 1  2  13  14  15  16  17  18  19  20  21  22  24  25 0
 3-21G
 ****
 27  28  29  32  34  39  40  41  42  43  44  45  46  47  48  49 0
 3-21G
 ****


