%nproc=1
%NoSave
%Mem=1900MB
#P OB98/GEN NMR

erre ene a

0 1
  C      583.861     662.471      57.476
  O      583.083     661.480      56.841
  H      584.254     663.153      56.719
  H      584.704     662.003      58.001
  H      583.260     663.041      58.191
  P      582.246     660.495      57.798
  C      582.448     658.491      56.147
  O      582.728     658.998      57.447
  C      583.315     657.264      55.857
  O      584.723     657.609      55.925
  C      583.112     656.111      56.830
  O      581.977     655.320      56.489
  C      584.404     655.334      56.630
  O      584.331     654.586      55.401
  C      585.426     656.472      56.492
  N      589.420     655.859      59.566
  C      589.135     655.278      58.352
  N      590.038     654.382      57.886
  N      588.063     655.520      57.643
  C      587.236     656.424      58.239
  C      587.413     657.077      59.447
  C      588.615     656.801      60.199
  O      588.926     657.313      61.273
  N      586.372     657.937      59.705
  C      585.559     657.779      58.679
  N      586.038     656.864      57.755
  O      580.767     660.549      57.183
  O      582.248     660.851      59.245
  H      585.252     654.430      55.107
  H      580.120     660.495      57.913
  H      590.261     655.617      60.070
  H      584.619     658.299      58.541
  H      586.240     656.218      55.813
  H      584.589     654.625      57.435
  H      590.869     654.099      58.397
  H      583.057     656.467      57.870
  H      589.867     653.952      56.987
  H      583.108     656.943      54.827
  H      582.658     659.270      55.403
  H      581.381     658.236      56.093
  P      580.791     655.192      57.585
  C      580.161     653.007      56.307
  O      580.373     653.641      57.576
  O      579.563     655.914      56.867
  O      581.104     655.782      58.910
  H      578.911     656.224      57.540
  H      579.890     651.983      56.461
  H      581.060     653.055      55.729
  H      579.374     653.509      55.784

 6  7  8  9  10  11  12  13  14  15  26  29  33  34 0
 6-311+G(2d,p)
 ****
 36  38  39  40  41 0
 6-311+G(2d,p)
 ****
 1  2  3  4  5  16  17  18  19  20  21  22  23  24  25 0
 3-21G
 ****
 27  28  30  31  32  35  37  42  43  44  45  46  47 0
 3-21G
 ****
 48  49 0
 3-21G
 ****


