%nproc=1
%NoSave
%Mem=1900MB
#P OB98/GEN NMR

erre ene a

0 1
  C      309.727     -78.137    -102.502
  O      310.684     -78.746    -101.666
  H      308.730     -78.451    -102.180
  H      309.880     -78.466    -103.534
  H      309.784     -77.047    -102.453
  P      312.157     -78.124    -101.609
  C      312.921     -78.826     -99.241
  O      313.051     -79.047    -100.640
  C      313.142     -80.104     -98.440
  O      311.982     -80.957     -98.548
  C      314.335     -80.920     -98.951
  O      315.583     -80.544     -98.398
  C      313.954     -82.339     -98.535
  O      314.403     -82.634     -97.205
  C      312.425     -82.327     -98.591
  N      311.272     -86.742    -100.907
  C      311.981     -86.535     -99.737
  N      312.474     -87.641     -99.138
  N      312.196     -85.347     -99.229
  C      311.726     -84.335     -99.991
  C      311.027     -84.417    -101.176
  C      310.732     -85.733    -101.694
  O      310.093     -85.969    -102.712
  N      310.751     -83.168    -101.687
  C      311.362     -82.342    -100.857
  N      311.897     -82.997     -99.765
  O      311.972     -76.794    -100.733
  O      312.778     -77.804    -102.936
  H      314.280     -83.595     -97.051
  H      312.608     -76.115    -101.025
  H      311.111     -87.676    -101.236
  H      311.403     -81.261    -100.965
  H      311.984     -82.828     -97.717
  H      314.419     -83.079     -99.195
  H      312.412     -88.567     -99.533
  H      314.385     -80.887    -100.044
  H      313.159     -87.518     -98.389
  H      313.255     -79.858     -97.378
  H      311.905     -78.451     -99.083
  H      313.614     -78.045     -98.912
  P      316.910     -80.505     -99.293
  C      317.776     -78.187     -98.414
  O      317.981     -79.578     -98.565
  O      316.455     -79.631    -100.558
  O      317.451     -81.836     -99.697
  H      316.225     -80.211    -101.308
  H      318.611     -77.757     -97.901
  H      316.884     -78.017     -97.848
  H      317.679     -77.734     -99.378

 6  7  8  9  10  11  12  13  14  15  26  29  33  34 0
 6-311+G(2d,p)
 ****
 36  38  39  40  41 0
 6-311+G(2d,p)
 ****
 1  2  3  4  5  16  17  18  19  20  21  22  23  24  25 0
 3-21G
 ****
 27  28  30  31  32  35  37  42  43  44  45  46  47 0
 3-21G
 ****
 48  49 0
 3-21G
 ****


