%nproc=1
%NoSave
%Mem=1900MB
#P OB98/GEN NMR

erre ene a

0 1
  C      281.992    -220.091    -206.923
  O      280.902    -220.491    -206.121
  H      282.505    -220.983    -207.292
  H      282.696    -219.498    -206.335
  H      281.637    -219.506    -207.779
  P      280.011    -219.324    -205.473
  C      280.310    -217.861    -203.350
  O      280.579    -219.107    -203.982
  C      281.318    -217.607    -202.227
  O      281.135    -218.612    -201.190
  C      282.786    -217.674    -202.683
  O      283.532    -216.675    -201.980
  C      283.229    -219.046    -202.207
  O      284.640    -219.128    -202.044
  C      282.434    -219.166    -200.910
  N      285.104    -223.335    -200.005
  C      285.512    -222.083    -200.412
  N      286.833    -221.906    -200.617
  N      284.691    -221.082    -200.608
  C      283.399    -221.391    -200.341
  C      282.866    -222.596    -199.946
  C      283.784    -223.698    -199.754
  O      283.477    -224.839    -199.417
  N      281.501    -222.512    -199.817
  C      281.210    -221.260    -200.136
  N      282.334    -220.544    -200.455
  O      278.594    -220.030    -205.226
  O      279.889    -218.080    -206.285
  H      284.840    -219.957    -201.558
  H      277.867    -219.380    -205.289
  H      285.776    -224.078    -199.879
  H      280.219    -220.828    -200.147
  H      282.882    -218.593    -200.089
  H      282.919    -219.812    -202.927
  H      287.529    -222.622    -200.454
  H      282.916    -217.541    -203.759
  H      287.162    -220.991    -200.903
  H      281.092    -216.637    -201.770
  H      279.300    -217.882    -202.933
  H      280.376    -217.061    -204.094
  P      284.312    -215.580    -202.853
  C      286.740    -215.174    -203.684
  O      285.834    -216.061    -203.038
  O      284.433    -214.336    -201.846
  O      283.603    -215.187    -204.107
  H      283.833    -213.621    -202.130
  H      287.708    -215.627    -203.734
  H      286.802    -214.261    -203.129
  H      286.391    -214.967    -204.674

 6  7  8  9  10  11  12  13  14  15  26  29  33  34 0
 6-311+G(2d,p)
 ****
 36  38  39  40  41 0
 6-311+G(2d,p)
 ****
 1  2  3  4  5  16  17  18  19  20  21  22  23  24  25 0
 3-21G
 ****
 27  28  30  31  32  35  37  42  43  44  45  46  47 0
 3-21G
 ****
 48  49 0
 3-21G
 ****


