%nproc=1
%NoSave
%Mem=1900MB
#P OB98/GEN NMR

erre ene a

0 1
  C      485.666     323.835      86.097
  O      484.983     324.500      87.144
  P      484.732     326.085      87.103
  C      482.822     326.209      85.361
  O      483.180     326.252      86.744
  C      481.312     326.408      85.222
  O      480.614     325.297      85.831
  C      480.764     327.657      85.904
  O      481.057     328.824      85.146
  C      479.295     327.305      86.022
  O      478.619     327.525      84.768
  C      479.351     325.792      86.318
  N      479.181     325.488      87.742
  C      477.873     325.487      88.227
  O      476.921     325.735      87.486
  N      477.667     325.192      89.549
  C      478.677     324.930      90.319
  N      478.405     324.566      91.609
  C      480.073     324.961      89.865
  C      480.259     325.246      88.571
  O      485.660     326.841      86.209
  O      484.792     326.549      88.628
  H      478.513     328.493      84.662
  H      485.702     326.774      88.940
  H      480.878     324.755      90.553
  H      481.248     325.279      88.148
  H      478.578     325.263      85.750
  H      478.761     327.887      86.782
  H      481.204     327.768      86.905
  H      481.072     326.427      84.146
  H      477.434     324.383      91.829
  H      483.096     325.231      84.960
  H      479.086     324.087      92.175
  H      483.373     326.980      84.824
  P      480.572     330.236      85.733
  C      482.984     331.004      86.262
  O      481.800     331.248      85.523
  O      480.519     329.978      87.312
  O      479.260     330.707      85.196
  H      479.599     329.817      87.603
  H      483.780     331.625      85.842
  H      483.288     329.949      86.187
  H      482.842     331.280      87.307
  H      485.726     322.790      86.318
  H      486.653     324.237      86.003
  H      485.135     323.975      85.179

 3  4  5  6  7  8  9  10  11  12  13  23  27  28  29  30  32 0
 6-311+G(2d,p)
 ****
 34  35 0
 6-311+G(2d,p)
 ****
 1  2  14  15  16  17  18  19  20  21  22  24  25  26 0
 3-21G
 ****
 31  33  36  37  38  39  40  41  42  43  44  45  46 0
 3-21G
 ****


