%nproc=1
%NoSave
%Mem=1900MB
#P OB98/GEN NMR

erre ene a

0 1
  C       78.982    -186.211    -627.591
  O       77.636    -186.383    -627.997
  P       77.127    -187.886    -628.235
  C       75.627    -187.055    -630.196
  O       75.690    -187.748    -628.947
  C       74.173    -186.885    -630.633
  O       73.619    -188.175    -630.940
  C       73.259    -186.273    -629.588
  O       73.449    -184.870    -629.523
  C       71.886    -186.689    -630.096
  O       71.385    -185.741    -631.055
  C       72.184    -188.058    -630.762
  N       71.645    -189.179    -630.000
  C       70.371    -189.629    -630.402
  O       69.773    -189.065    -631.323
  N       69.810    -190.684    -629.714
  C       70.443    -191.224    -628.726
  N       69.839    -192.263    -628.083
  C       71.779    -190.770    -628.252
  C       72.304    -189.749    -628.941
  O       76.755    -188.384    -626.755
  O       78.115    -188.783    -628.904
  H       70.713    -186.234    -631.587
  H       76.824    -189.354    -626.675
  H       72.255    -191.261    -627.437
  H       73.278    -189.352    -628.664
  H       71.736    -188.088    -631.774
  H       71.155    -186.743    -629.281
  H       73.452    -186.733    -628.601
  H       74.163    -186.289    -631.567
  H       68.916    -192.548    -628.415
  H       76.175    -187.607    -630.965
  H       70.260    -192.753    -627.309
  H       76.106    -186.067    -630.072
  P       74.007    -184.251    -628.133
  C       73.292    -181.912    -628.896
  O       74.365    -182.740    -628.490
  O       75.452    -184.932    -628.015
  O       73.176    -184.490    -626.920
  H       75.852    -184.712    -627.153
  H       73.640    -180.881    -628.949
  H       72.463    -181.973    -628.184
  H       72.947    -182.225    -629.893
  H       79.187    -185.168    -627.469
  H       79.634    -186.618    -628.335
  H       79.142    -186.717    -626.662

 3  4  5  6  7  8  9  10  11  12  13  21  23  27  28  29  30  32 0
 6-311+G(2d,p)
 ****
 34  35 0
 6-311+G(2d,p)
 ****
 1  2  14  15  16  17  18  19  20  22  24  25  26 0
 3-21G
 ****
 31  33  36  37  38  39  40  41  42  43  44  45  46 0
 3-21G
 ****


