%nproc=1
%NoSave
%Mem=1900MB
#P OB98/GEN NMR

erre ene a

0 1
  C     -211.661     434.466     258.092
  O     -210.678     433.843     258.908
  P     -210.451     434.443     260.382
  C     -207.980     435.044     259.858
  O     -209.270     435.519     260.228
  C     -206.960     436.173     259.911
  O     -207.271     437.160     258.912
  C     -206.918     436.930     261.229
  O     -206.161     436.245     262.213
  C     -206.229     438.219     260.807
  O     -204.805     438.015     260.768
  C     -206.778     438.437     259.386
  N     -208.006     443.336     259.735
  C     -206.774     442.723     259.843
  N     -205.715     443.533     260.045
  N     -206.597     441.430     259.760
  C     -207.740     440.749     259.517
  C     -209.019     441.242     259.391
  C     -209.208     442.668     259.531
  O     -210.285     443.260     259.513
  N     -209.917     440.239     259.131
  C     -209.181     439.147     259.060
  N     -207.858     439.401     259.318
  O     -209.748     433.234     261.159
  O     -211.684     434.908     261.074
  H     -204.650     437.141     260.359
  H     -209.915     433.315     262.120
  H     -208.084     444.335     259.788
  H     -209.564     438.164     258.828
  H     -205.984     438.750     258.699
  H     -206.413     439.048     261.497
  H     -205.770     444.540     259.988
  H     -207.931     437.155     261.587
  H     -204.799     443.107     260.089
  H     -205.974     435.754     259.677
  H     -208.021     434.646     258.840
  H     -207.695     434.236     260.539
  P     -206.186     436.857     263.699
  C     -203.605     436.673     263.932
  O     -204.742     437.517     263.906
  O     -206.159     435.559     264.632
  O     -207.361     437.733     263.982
  H     -206.569     435.755     265.496
  H     -203.710     435.840     263.229
  H     -203.466     436.283     264.944
  H     -202.728     437.257     263.651
  H     -211.706     433.969     257.146
  H     -211.402     435.493     257.943
  H     -212.615     434.405     258.573

 3  4  5  6  7  8  9  10  11  12  23  26  30  31  33  0
 6-311+G(2d,p)
 ****
 35  36  37  38 0
 6-311+G(2d,p)
 ****
 1  2  13  14  15  16  17  18  19  20  21  22  24  25  27  28  29 0
 3-21G
 ****
 32  34  39  40  41  42  43  44  45  46  47  48  49 0
 3-21G
 ****


