%nproc=1
%NoSave
%Mem=1900MB
#P OB98/GEN NMR

erre ene a

0 1
  C      354.900    -317.645    -165.267
  O      354.654    -316.571    -166.151
  H      354.861    -317.267    -164.244
  H      355.894    -318.072    -165.443
  H      354.135    -318.419    -165.381
  P      354.776    -316.844    -167.731
  C      356.645    -317.879    -169.199
  O      356.147    -317.670    -167.885
  C      358.113    -317.465    -169.280
  O      358.272    -316.052    -168.998
  C      359.034    -318.162    -168.283
  O      359.312    -319.511    -168.623
  C      360.261    -317.268    -168.386
  O      360.972    -317.563    -169.605
  C      359.603    -315.865    -168.450
  N      359.539    -315.207    -167.149
  C      360.479    -314.202    -166.900
  O      361.318    -313.902    -167.750
  N      360.479    -313.582    -165.676
  C      359.624    -313.941    -164.764
  N      359.700    -313.326    -163.555
  C      358.602    -314.982    -164.986
  C      358.615    -315.572    -166.184
  O      354.645    -315.648    -168.618
  O      353.682    -317.980    -168.024
  H      361.173    -318.516    -169.591
  H      353.709    -318.172    -168.994
  H      357.918    -315.255    -164.195
  H      357.909    -316.358    -166.418
  H      360.147    -315.217    -169.147
  H      360.959    -317.403    -167.558
  H      358.631    -318.089    -167.268
  H      358.445    -317.622    -170.319
  H      360.440    -312.652    -163.420
  H      356.031    -317.291    -169.895
  H      359.271    -313.737    -162.726
  H      356.570    -318.938    -169.472
  P      360.144    -320.391    -167.576
  C      362.687    -320.746    -167.103
  O      361.689    -319.963    -167.742
  O      360.089    -321.858    -168.210
  O      359.660    -320.361    -166.156
  H      359.349    -322.379    -167.830
  H      363.652    -320.332    -167.310
  H      362.643    -321.750    -167.471
  H      362.518    -320.746    -166.046

 6  7  8  9  10  11  12  13  14  15  16  26  30  31  32  33  35 0
 6-311+G(2d,p)
 ****
 37  38 0
 6-311+G(2d,p)
 ****
 1  2  3  4  5  17  18  19  20  21  22  23  24  25 0
 3-21G
 ****
 27  28  29  34  36  39  40  41  42  43  44  45  46 0
 3-21G
 ****


