%nproc=1
%NoSave
%Mem=1900MB
#P OB98/GEN NMR

erre ene a

0 1
  C      258.960       1.824    -157.165
  O      257.629       1.929    -157.647
  P      256.652       0.677    -157.416
  C      256.720      -1.815    -158.265
  O      257.184      -0.478    -158.392
  C      257.309      -2.685    -159.379
  O      256.750      -2.297    -160.653
  C      258.820      -2.572    -159.543
  O      259.516      -3.298    -158.548
  C      259.001      -3.099    -160.964
  O      258.984      -4.536    -160.966
  C      257.743      -2.551    -161.671
  N      258.006      -1.349    -162.466
  C      257.698      -1.433    -163.821
  O      257.232      -2.444    -164.346
  N      257.968      -0.311    -164.564
  C      258.558       0.833    -164.106
  O      258.816       1.794    -164.825
  C      258.889       0.849    -162.673
  C      258.602      -0.226    -161.929
  O      255.316       1.218    -158.114
  O      256.508       0.299    -155.980
  H      255.510       1.865    -158.815
  H      258.070      -4.804    -160.755
  H      257.732      -0.337    -165.546
  H      259.366       1.735    -162.275
  H      258.846      -0.235    -160.874
  H      257.314      -3.317    -162.329
  H      259.949      -2.779    -161.416
  H      259.117      -1.518    -159.504
  H      257.021      -3.729    -159.187
  H      255.628      -1.823    -158.328
  H      257.013      -2.200    -157.280
  P      260.997      -2.773    -158.177
  C      263.371      -3.195    -159.182
  O      261.974      -3.380    -159.288
  O      261.308      -3.633    -156.858
  O      261.075      -1.293    -157.984
  H      261.023      -4.561    -156.933
  H      263.871      -3.950    -159.794
  H      263.711      -3.293    -158.150
  H      263.636      -2.202    -159.563
  H      259.492       2.725    -157.387
  H      259.446       0.997    -157.638
  H      258.945       1.671    -156.106

 3  4  5  6  7  8  9  10  11  12  13  24  28  29  30  31  32 0
 6-311+G(2d,p)
 ****
 33  34 0
 6-311+G(2d,p)
 ****
 1  2  14  15  16  17  18  19  20  21  22  23  25  26  27 0
 3-21G
 ****
 35  36  37  38  39  40  41  42  43  44  45 0
 3-21G
 ****


