%nproc=1
%NoSave
%Mem=1900MB
#P OB98/GEN NMR

erre ene a

0 1
  C      685.381     409.562    -808.929
  O      684.439     410.612    -808.701
  P      683.638     410.598    -807.305
  C      681.312     411.512    -808.088
  O      682.522     411.733    -807.383
  C      680.547     412.839    -808.291
  O      680.428     413.500    -807.001
  C      681.226     413.848    -809.202
  O      680.247     414.818    -809.622
  C      682.197     414.515    -808.253
  O      682.649     415.772    -808.756
  C      681.384     414.586    -806.940
  N      682.223     414.448    -805.725
  C      682.901     415.562    -805.254
  O      682.860     416.668    -805.799
  N      683.688     415.374    -804.150
  C      683.830     414.211    -803.451
  O      684.619     414.069    -802.519
  C      682.979     413.094    -803.893
  C      682.242     413.257    -804.994
  O      684.711     411.166    -806.256
  O      683.134     409.249    -806.912
  H      682.905     415.629    -809.699
  H      685.050     410.432    -805.702
  H      684.249     416.164    -803.839
  H      683.013     412.183    -803.326
  H      681.618     412.437    -805.349
  H      680.846     415.531    -806.847
  H      683.073     413.890    -808.116
  H      681.721     413.426    -810.073
  H      679.530     412.620    -808.639
  H      680.690     410.789    -807.566
  H      681.538     411.083    -809.077
  P      679.873     414.865    -811.187
  C      680.237     417.413    -811.205
  O      679.334     416.350    -811.477
  O      679.011     413.750    -811.694
  O      681.318     414.873    -811.896
  H      681.226     414.603    -812.833
  H      680.018     418.244    -811.873
  H      681.274     417.113    -811.336
  H      680.078     417.743    -810.170
  H      685.837     409.694    -809.888
  H      684.877     408.618    -808.900
  H      686.134     409.587    -808.169

 3  4  5  6  7  8  9  10  11  12  13  23  28  29  30  31  32 0
 6-311+G(2d,p)
 ****
 33  34 0
 6-311+G(2d,p)
 ****
 1  2  14  15  16  17  18  19  20  21  22  24  25  26  27 0
 3-21G
 ****
 35  36  37  38  39  40  41  42  43  44  45 0
 3-21G
 ****


