%nproc=1
%NoSave
%Mem=1900MB
#P OB98/GEN NMR

erre ene a

0 1
  C      -74.803     247.778    -115.563
  O      -74.607     247.341    -116.898
  P      -75.908     246.917    -117.741
  C      -74.199     245.439    -119.030
  O      -75.368     246.242    -119.092
  C      -73.585     245.290    -120.419
  O      -74.524     244.682    -121.330
  C      -73.190     246.607    -121.069
  O      -71.938     247.085    -120.607
  C      -73.094     246.194    -122.529
  O      -71.835     245.540    -122.774
  C      -74.250     245.194    -122.656
  N      -76.154     247.805    -126.550
  C      -74.921     247.196    -126.413
  N      -74.055     247.357    -127.435
  N      -74.571     246.490    -125.370
  C      -75.538     246.421    -124.421
  C      -76.797     246.980    -124.443
  C      -77.166     247.769    -125.599
  O      -78.218     248.375    -125.754
  N      -77.495     246.685    -123.304
  C      -76.667     245.949    -122.590
  N      -75.451     245.797    -123.206
  O      -76.497     248.319    -118.239
  O      -76.913     246.123    -116.978
  H      -71.137     246.198    -122.587
  H      -77.423     248.209    -118.526
  H      -76.374     248.343    -127.370
  H      -76.895     245.521    -121.623
  H      -73.983     244.339    -123.286
  H      -73.150     247.043    -123.217
  H      -74.241     247.940    -128.238
  H      -73.981     247.360    -120.957
  H      -73.123     246.974    -127.335
  H      -72.715     244.624    -120.336
  H      -74.460     244.453    -118.637
  H      -73.481     245.901    -118.346
  P      -71.947     248.479    -119.810
  C      -70.043     249.248    -121.402
  O      -70.505     249.126    -120.070
  O      -71.892     248.019    -118.280
  O      -73.123     249.349    -120.100
  H      -72.294     248.696    -117.704
  H      -69.191     249.933    -121.416
  H      -70.824     249.648    -122.055
  H      -69.716     248.273    -121.772
  H      -73.858     248.026    -115.126
  H      -75.264     246.996    -114.996
  H      -75.435     248.641    -115.559

 3  4  5  6  7  8  9  10  11  12  23  26  30  31 0
 6-311+G(2d,p)
 ****
 33  35  36  37  38 0
 6-311+G(2d,p)
 ****
 1  2  13  14  15  16  17  18  19  20  21  22  24  25 0
 3-21G
 ****
 27  28  29  32  34  39  40  41  42  43  44  45  46  47  48  49 0
 3-21G
 ****


