%nproc=1
%NoSave
%Mem=1900MB
#P OB98/GEN NMR

erre ene a

0 1
  C       71.884     229.361     146.143
  O       73.093     229.878     145.574
  P       73.824     229.016     144.432
  C       76.401     229.374     144.946
  O       75.271     229.630     144.132
  C       77.530     230.348     144.555
  O       77.979     230.091     143.207
  C       77.110     231.818     144.597
  O       77.247     232.373     145.898
  C       78.026     232.446     143.567
  O       79.343     232.638     144.115
  C       78.042     231.346     142.475
  N       76.962     231.358     141.458
  C       77.191     231.941     140.219
  O       78.240     232.483     139.884
  N       76.143     231.894     139.329
  C       74.982     231.175     139.481
  O       74.107     231.116     138.625
  C       74.869     230.446     140.752
  C       75.829     230.578     141.663
  O       72.994     229.352     143.107
  O       73.880     227.542     144.706
  H       79.224     233.086     144.979
  H       72.546     228.543     142.773
  H       76.256     232.371     138.450
  H       73.986     229.832     140.899
  H       75.741     230.038     142.607
  H       78.998     231.356     141.928
  H       77.669     233.440     143.265
  H       76.076     231.922     144.240
  H       78.381     230.194     145.237
  H       76.743     228.348     144.826
  H       76.136     229.509     145.995
  P       75.972     232.960     146.663
  C       76.563     235.216     147.752
  O       76.555     233.812     147.904
  O       74.888     231.983     146.996
  O       75.442     234.119     145.666
  H       74.719     233.789     145.092
  H       76.850     235.662     148.708
  H       75.581     235.571     147.446
  H       77.309     235.507     147.004
  H       71.519     230.042     146.883
  H       72.081     228.412     146.597
  H       71.150     229.243     145.374

 3  4  5  6  7  8  9  10  11  12  13  23  28  29  30  31  32 0
 6-311+G(2d,p)
 ****
 33  34 0
 6-311+G(2d,p)
 ****
 1  2  14  15  16  17  18  19  20  21  22  24  25  26  27 0
 3-21G
 ****
 35  36  37  38  39  40  41  42  43  44  45 0
 3-21G
 ****


