%nproc=1
%NoSave
%Mem=1900MB
#P OB98/GEN NMR

erre ene a

0 1
  C     -104.780    -141.901       9.193
  O     -105.762    -142.415      10.068
  H     -104.384    -142.724       8.592
  H     -103.956    -141.453       9.755
  H     -105.221    -141.160       8.521
  P     -106.418    -141.421      11.146
  C     -104.663    -142.111      12.926
  O     -105.203    -141.060      12.138
  C     -104.333    -141.602      14.327
  O     -103.290    -140.606      14.285
  C     -105.491    -140.923      15.054
  O     -106.471    -141.830      15.527
  C     -104.730    -140.244      16.183
  O     -104.374    -141.221      17.177
  C     -103.473    -139.733      15.436
  N     -103.593    -138.340      15.005
  C     -103.459    -137.363      15.999
  O     -103.253    -137.685      17.169
  N     -103.601    -136.040      15.652
  C     -103.872    -135.723      14.424
  N     -104.050    -134.401      14.143
  C     -104.005    -136.717      13.342
  C     -103.860    -137.993      13.698
  O     -107.667    -141.899      11.813
  O     -106.605    -140.043      10.353
  H     -103.735    -141.829      16.762
  H     -107.019    -139.396      10.975
  H     -104.240    -136.399      12.337
  H     -103.960    -138.784      12.962
  H     -102.580    -139.834      16.061
  H     -105.309    -139.464      16.685
  H     -105.944    -140.149      14.424
  H     -103.940    -142.452      14.903
  H     -103.994    -133.753      14.916
  H     -103.769    -142.488      12.424
  H     -104.528    -134.101      13.298
  H     -105.390    -142.924      13.017
  P     -108.014    -141.483      15.243
  C     -108.448    -140.824      17.726
  O     -108.462    -140.427      16.365
  O     -108.766    -142.830      15.667
  O     -108.336    -141.062      13.844
  H     -108.905    -143.415      14.897
  H     -108.772    -140.009      18.339
  H     -107.454    -141.107      18.005
  H     -109.107    -141.656      17.862

 6  7  8  9  10  11  12  13  14  15  16  26  30  31  32  33  35 0
 6-311+G(2d,p)
 ****
 37  38 0
 6-311+G(2d,p)
 ****
 1  2  3  4  5  17  18  19  20  21  22  23  24  25 0
 3-21G
 ****
 27  28  29  34  36  39  40  41  42  43  44  45  46 0
 3-21G
 ****


