%nproc=1
%NoSave
%Mem=1900MB
#P OB98/GEN NMR

erre ene a

0 1
  C      494.718    -132.516    -493.982
  O      495.484    -133.102    -495.035
  P      497.062    -133.292    -494.812
  C      496.995    -135.892    -494.959
  O      497.314    -134.739    -494.184
  C      497.123    -137.160    -494.110
  O      496.001    -137.340    -493.224
  C      497.190    -138.444    -494.935
  O      498.508    -138.677    -495.425
  C      496.829    -139.485    -493.886
  O      497.976    -139.775    -493.065
  C      495.762    -138.751    -493.064
  N      491.639    -141.656    -492.125
  C      492.875    -141.629    -491.559
  N      493.923    -140.841    -491.875
  C      493.602    -140.006    -492.879
  C      492.392    -139.915    -493.553
  C      491.384    -140.796    -493.141
  N      490.126    -140.833    -493.727
  N      492.442    -138.951    -494.534
  C      493.653    -138.444    -494.446
  N      494.401    -139.056    -493.463
  O      497.368    -132.303    -493.593
  O      497.886    -132.957    -496.013
  H      498.627    -140.231    -493.620
  H      498.262    -131.919    -493.697
  H      493.029    -142.330    -490.742
  H      494.040    -137.630    -495.057
  H      495.841    -138.975    -491.993
  H      496.498    -140.432    -494.330
  H      496.446    -138.435    -495.737
  H      498.037    -137.075    -493.494
  H      497.650    -135.944    -495.827
  H      489.453    -141.464    -493.347
  H      489.915    -140.165    -494.460
  H      495.977    -135.781    -495.347
  P      498.882    -138.010    -496.831
  C      500.365    -136.285    -495.558
  O      499.326    -136.504    -496.490
  O      497.477    -137.855    -497.562
  O      499.857    -138.811    -497.646
  H      497.585    -137.910    -498.526
  H      500.741    -135.263    -495.671
  H      501.201    -136.972    -495.722
  H      499.976    -136.411    -494.536
  H      493.692    -132.457    -494.278
  H      495.087    -131.533    -493.777
  H      494.801    -133.119    -493.102

 3  4  5  6  7  8  9  10  11  12  22  25  29  30  31  32 0
 6-311+G(2d,p)
 ****
 33  36  37 0
 6-311+G(2d,p)
 ****
 1  2  13  14  15  16  17  18  19  20  21  23  24  26 0
 3-21G
 ****
 27  28  34  35  38  39  40  41  42  43  44  45  46  47  48 0
 3-21G
 ****


