%nproc=1
%NoSave
%Mem=1900MB
#P OB98/GEN NMR

erre ene a

0 1
  C     -157.706      21.805      11.284
  O     -156.917      21.056      12.190
  P     -156.981      19.455      12.120
  C     -154.959      19.570      10.446
  O     -156.226      19.028      10.768
  C     -153.959      18.447      10.155
  O     -152.652      19.031       9.908
  C     -153.799      17.428      11.292
  O     -153.575      16.147      10.687
  C     -152.546      17.909      12.000
  O     -151.922      16.888      12.763
  C     -151.717      18.405      10.811
  N     -150.662      19.344      11.189
  C     -149.434      18.820      11.577
  O     -149.191      17.616      11.643
  N     -148.477      19.740      11.925
  C     -148.645      21.093      11.986
  O     -147.759      21.868      12.320
  C     -149.979      21.585      11.611
  C     -150.904      20.706      11.227
  O     -158.527      19.221      11.791
  O     -156.489      18.779      13.353
  H     -158.900      19.903      11.210
  H     -151.605      16.201      12.146
  H     -147.566      19.383      12.173
  H     -150.156      22.652      11.660
  H     -151.894      21.045      10.947
  H     -151.278      17.553      10.279
  H     -152.805      18.729      12.679
  H     -154.678      17.385      11.940
  H     -154.267      17.942       9.229
  H     -154.593      20.163      11.285
  H     -155.058      20.235       9.582
  P     -154.074      14.837      11.478
  C     -156.506      15.739      11.835
  O     -155.300      15.276      12.407
  O     -152.873      14.668      12.529
  O     -154.272      13.626      10.628
  H     -152.650      15.496      12.985
  H     -157.299      15.663      12.582
  H     -156.788      15.146      10.964
  H     -156.393      16.789      11.547
  H     -157.553      22.850      11.457
  H     -158.739      21.567      11.429
  H     -157.422      21.564      10.281

 3  4  5  6  7  8  9  10  11  12  13  24  28  29  30  31  32 0
 6-311+G(2d,p)
 ****
 33  34 0
 6-311+G(2d,p)
 ****
 1  2  14  15  16  17  18  19  20  21  22  23  25  26  27 0
 3-21G
 ****
 35  36  37  38  39  40  41  42  43  44  45 0
 3-21G
 ****


