%nproc=1
%NoSave
%Mem=1900MB
#P OB98/GEN NMR

erre ene a

0 1
  C      -29.243     -91.984      -7.519
  O      -29.287     -90.853      -6.650
  P      -27.954     -89.986      -6.445
  C      -26.613     -92.071      -5.750
  O      -27.013     -90.752      -5.397
  C      -25.591     -92.615      -4.750
  O      -24.297     -92.004      -4.927
  C      -25.968     -92.349      -3.303
  O      -27.014     -93.209      -2.885
  C      -24.634     -92.562      -2.603
  O      -24.392     -93.958      -2.367
  C      -23.631     -92.020      -3.645
  N      -23.099     -90.709      -3.305
  C      -22.100     -90.689      -2.326
  O      -21.745     -91.733      -1.778
  N      -21.540     -89.482      -1.984
  C      -21.949     -88.395      -2.562
  N      -21.357     -87.230      -2.186
  C      -23.008     -88.373      -3.589
  C      -23.540     -89.553      -3.903
  O      -28.165     -88.533      -6.170
  O      -27.175     -90.202      -7.832
  H      -23.574     -94.003      -1.833
  H      -26.640     -89.407      -8.020
  H      -23.309     -87.442      -4.045
  H      -24.325     -89.628      -4.645
  H      -22.782     -92.709      -3.748
  H      -24.600     -92.060      -1.631
  H      -26.282     -91.304      -3.189
  H      -25.492     -93.696      -4.917
  H      -20.641     -87.271      -1.471
  H      -26.184     -92.066      -6.755
  H      -21.570     -86.340      -2.612
  H      -27.502     -92.711      -5.791
  P      -28.500     -92.611      -2.849
  C      -28.426     -92.658      -0.259
  O      -29.144     -92.985      -1.432
  O      -29.292     -93.555      -3.875
  O      -28.607     -91.174      -3.246
  H      -29.976     -93.036      -4.335
  H      -29.115     -92.683       0.591
  H      -27.987     -91.659      -0.325
  H      -27.637     -93.396      -0.092
  H      -30.206     -92.450      -7.546
  H      -28.518     -92.683      -7.158
  H      -28.972     -91.666      -8.504

 3  4  5  6  7  8  9  10  11  12  13  23  27  28  29  30  32 0
 6-311+G(2d,p)
 ****
 34  35 0
 6-311+G(2d,p)
 ****
 1  2  14  15  16  17  18  19  20  21  22  24  25  26 0
 3-21G
 ****
 31  33  36  37  38  39  40  41  42  43  44  45  46 0
 3-21G
 ****


