%nproc=1
%NoSave
%Mem=1900MB
#P OB98/GEN NMR

erre ene a

0 1
  C      366.235       1.729     138.186
  O      365.105       1.830     139.036
  P      364.028       0.639     138.980
  C      361.712       0.298     137.855
  O      362.838       1.149     138.031
  C      360.510       1.071     137.304
  O      360.025       1.973     138.329
  C      360.818       1.896     136.054
  O      359.674       1.838     135.200
  C      360.963       3.307     136.588
  O      360.703       4.282     135.581
  C      359.959       3.293     137.751
  N      360.248       4.323     138.742
  C      359.354       5.398     138.815
  O      358.425       5.481     138.012
  N      359.567       6.373     139.758
  C      360.636       6.336     140.490
  N      360.798       7.321     141.412
  C      361.665       5.285     140.361
  C      361.398       4.312     139.493
  O      363.380       0.677     140.440
  O      364.598      -0.699     138.646
  H      361.480       4.316     134.980
  H      363.113      -0.218     140.726
  H      362.557       5.321     140.970
  H      362.086       3.488     139.347
  H      358.937       3.442     137.380
  H      361.984       3.461     136.963
  H      361.701       1.536     135.515
  H      359.707       0.353     137.099
  H      360.086       8.038     141.472
  H      361.430      -0.125     138.823
  H      361.599       7.375     142.026
  H      361.980      -0.526     137.187
  P      359.756       2.606     133.794
  C      359.357       5.035     133.067
  O      359.551       4.153     134.155
  O      358.333       2.237     133.149
  O      360.875       2.266     132.867
  H      358.280       2.599     132.245
  H      359.096       6.022     133.457
  H      358.545       4.680     132.427
  H      360.282       5.119     132.488
  H      366.864       2.583     138.326
  H      365.912       1.687     137.167
  H      366.782       0.841     138.424

 3  4  5  6  7  8  9  10  11  12  13  21  23  27  28  29  30  32 0
 6-311+G(2d,p)
 ****
 34  35 0
 6-311+G(2d,p)
 ****
 1  2  14  15  16  17  18  19  20  22  24  25  26 0
 3-21G
 ****
 31  33  36  37  38  39  40  41  42  43  44  45  46 0
 3-21G
 ****


