%nproc=1
%NoSave
%Mem=1900MB
#P OB98/GEN NMR

erre ene a

0 1
  C     1166.034    2132.656    -184.971
  O     1167.335    2133.275    -185.007
  P     1168.709    2132.518    -184.789
  C     1169.197    2132.368    -187.351
  O     1169.034    2131.695    -186.127
  C     1169.056    2131.435    -188.567
  O     1167.701    2130.991    -188.747
  C     1169.441    2132.185    -189.873
  O     1170.810    2132.291    -190.242
  C     1168.543    2131.583    -190.967
  O     1169.181    2130.509    -191.658
  C     1167.352    2131.014    -190.151
  N     1162.758    2131.242    -192.400
  C     1163.756    2130.307    -192.533
  N     1163.535    2129.277    -193.397
  N     1164.868    2130.327    -191.859
  C     1165.050    2131.423    -191.104
  C     1164.143    2132.459    -190.924
  C     1162.868    2132.391    -191.596
  O     1161.950    2133.189    -191.510
  N     1164.646    2133.417    -190.080
  C     1165.854    2133.004    -189.776
  N     1166.152    2131.792    -190.386
  O     1168.815    2131.791    -183.491
  O     1169.796    2133.711    -184.805
  H     1170.063    2130.793    -191.972
  H     1170.498    2133.433    -184.185
  H     1161.907    2131.163    -192.926
  H     1166.575    2133.511    -189.124
  H     1167.137    2129.975    -190.406
  H     1168.272    2132.322    -191.702
  H     1162.733    2129.256    -194.014
  H     1169.077    2133.206    -189.748
  H     1164.326    2128.697    -193.655
  H     1169.655    2130.525    -188.428
  H     1170.179    2132.842    -187.344
  H     1168.449    2133.184    -187.436
  P     1171.880    2133.338    -189.609
  C     1173.173    2131.466    -188.387
  O     1172.412    2132.677    -188.258
  O     1170.974    2134.547    -189.067
  O     1172.945    2133.806    -190.544
  H     1171.548    2135.318    -188.892
  H     1173.214    2130.946    -187.372
  H     1174.189    2131.726    -188.694
  H     1172.721    2130.774    -189.125
  H     1165.282    2133.396    -185.149
  H     1165.877    2132.212    -184.010
  H     1165.977    2131.901    -185.727

 3  4  5  6  7  8  9  10  11  12  23  26  30  31 0
 6-311+G(2d,p)
 ****
 33  35  36  37  38 0
 6-311+G(2d,p)
 ****
 1  2  13  14  15  16  17  18  19  20  21  22  24  25 0
 3-21G
 ****
 27  28  29  32  34  39  40  41  42  43  44  45  46  47  48  49 0
 3-21G
 ****


