%nproc=1
%NoSave
%Mem=1900MB
#P OB98/GEN NMR

erre ene a

0 1
  C     -400.011      86.255    -216.758
  O     -401.422      86.309    -216.907
  P     -402.355      85.102    -216.410
  C     -403.904      86.558    -214.966
  O     -402.891      85.557    -214.970
  C     -403.969      87.230    -213.593
  O     -402.676      87.815    -213.307
  C     -404.967      88.380    -213.463
  O     -406.300      87.981    -213.176
  C     -404.391      89.115    -212.258
  O     -404.764      88.431    -211.047
  C     -402.886      88.995    -212.494
  N     -401.498      93.892    -211.957
  C     -401.988      92.987    -211.079
  N     -402.351      91.705    -211.303
  C     -402.123      91.368    -212.585
  C     -401.626      92.178    -213.592
  C     -401.304      93.499    -213.239
  N     -400.781      94.410    -214.130
  N     -401.553      91.480    -214.784
  C     -401.984      90.275    -214.489
  N     -402.334      90.154    -213.174
  O     -401.712      83.758    -216.469
  O     -403.659      85.208    -217.329
  H     -405.697      88.653    -210.868
  H     -404.163      84.373    -217.288
  H     -402.111      93.341    -210.056
  H     -402.063      89.460    -215.195
  H     -402.322      88.852    -211.563
  H     -404.763      90.143    -212.170
  H     -404.932      89.042    -214.338
  H     -404.164      86.456    -212.840
  H     -404.863      86.078    -215.177
  H     -400.463      95.286    -213.759
  H     -400.485      94.072    -215.035
  H     -403.702      87.291    -215.753
  P     -407.160      87.377    -214.388
  C     -407.604      85.037    -213.294
  O     -406.963      85.787    -214.308
  O     -406.883      87.988    -215.715
  O     -408.667      87.585    -213.888
  H     -408.927      87.055    -213.120
  H     -407.474      83.976    -213.512
  H     -408.673      85.261    -213.262
  H     -407.148      85.259    -212.325
  H     -399.576      87.151    -217.149
  H     -399.628      85.410    -217.292
  H     -399.765      86.163    -215.721

 3  4  5  6  7  8  9  10  11  12  22  25  29  30  31  32 0
 6-311+G(2d,p)
 ****
 33  36  37 0
 6-311+G(2d,p)
 ****
 1  2  13  14  15  16  17  18  19  20  21  23  24  26 0
 3-21G
 ****
 27  28  34  35  38  39  40  41  42  43  44  45  46  47  48 0
 3-21G
 ****


