%nproc=1
%NoSave
%Mem=1900MB
#P OB98/GEN NMR

erre ene a

0 1
  C      -19.258    -174.666       1.798
  O      -18.094    -175.444       1.558
  P      -16.915    -175.507       2.643
  C      -16.268    -177.678       1.423
  O      -15.793    -176.488       2.044
  C      -15.395    -178.047       0.222
  O      -15.634    -177.091      -0.839
  C      -13.901    -178.028       0.532
  O      -13.264    -179.075      -0.205
  C      -13.421    -176.698      -0.022
  O      -12.024    -176.750      -0.363
  C      -14.369    -176.503      -1.208
  N      -15.320    -173.101      -4.938
  C      -15.202    -174.444      -4.958
  N      -14.925    -175.282      -3.935
  C      -14.815    -174.601      -2.783
  C      -14.918    -173.230      -2.602
  C      -15.178    -172.460      -3.750
  N      -15.311    -171.088      -3.726
  N      -14.717    -172.893      -1.278
  C      -14.522    -174.041      -0.668
  N      -14.583    -175.102      -1.531
  O      -17.351    -175.838       4.030
  O      -16.218    -174.071       2.565
  H      -11.844    -175.994      -0.959
  H      -15.956    -173.771       3.457
  H      -15.345    -174.913      -5.931
  H      -14.324    -174.160       0.389
  H      -14.006    -177.016      -2.109
  H      -13.555    -175.914       0.732
  H      -13.684    -178.136       1.601
  H      -15.705    -179.035      -0.145
  H      -17.294    -177.502       1.083
  H      -15.618    -170.636      -4.575
  H      -15.377    -170.634      -2.824
  H      -16.283    -178.491       2.158
  P      -12.127    -179.902       0.586
  C      -12.207    -182.073      -0.847
  O      -11.510    -180.894      -0.510
  O      -12.652    -180.515       1.845
  O      -11.013    -178.768       0.804
  H      -11.084    -178.059       0.122
  H      -11.610    -182.634      -1.578
  H      -13.168    -181.826      -1.305
  H      -12.360    -182.697       0.039
  H      -19.923    -174.752       0.964
  H      -18.981    -173.641       1.929
  H      -19.747    -175.019       2.682

 3  4  5  6  7  8  9  10  11  12  22  25  29  30  31  32 0
 6-311+G(2d,p)
 ****
 33  36  37 0
 6-311+G(2d,p)
 ****
 1  2  13  14  15  16  17  18  19  20  21  23  24  26 0
 3-21G
 ****
 27  28  34  35  38  39  40  41  42  43  44  45  46  47  48 0
 3-21G
 ****


