%nproc=1
%NoSave
%Mem=1900MB
#P OB98/GEN NMR

erre ene a

0 1
  C     -136.407     208.545     473.213
  O     -137.638     208.475     472.527
  H     -136.608     208.637     474.284
  H     -135.838     209.423     472.882
  H     -135.818     207.638     473.044
  P     -137.560     208.316     470.926
  C     -136.573     209.828     469.060
  O     -137.183     209.761     470.343
  C     -137.472     210.600     468.097
  O     -138.019     211.761     468.761
  C     -136.759     211.130     466.874
  O     -136.544     210.130     465.893
  C     -137.719     212.222     466.415
  O     -138.786     211.690     465.626
  C     -138.258     212.775     467.752
  N     -138.795     217.853     467.903
  C     -139.660     216.864     467.533
  N     -139.432     215.527     467.541
  C     -138.197     215.253     467.992
  C     -137.218     216.149     468.388
  C     -137.569     217.514     468.336
  N     -136.688     218.528     468.675
  N     -136.065     215.499     468.749
  C     -136.330     214.209     468.573
  N     -137.609     214.019     468.132
  O     -139.092     208.121     470.511
  O     -136.708     207.186     470.447
  H     -139.156     212.443     465.117
  H     -139.274     207.166     470.364
  H     -140.641     217.184     467.214
  H     -135.637     213.398     468.753
  H     -139.338     212.954     467.720
  H     -137.202     212.969     465.814
  H     -135.812     211.599     467.162
  H     -138.315     209.954     467.807
  H     -136.419     208.815     468.677
  H     -135.607     210.331     469.154
  H     -136.978     219.476     468.542
  H     -135.737     218.288     468.894
  P     -135.370     210.352     464.827
  C     -134.901     212.002     462.862
  O     -135.772     211.588     463.911
  O     -135.474     209.103     463.856
  O     -134.009     210.480     465.439
  H     -134.577     208.807     463.567
  H     -135.328     212.841     462.354
  H     -134.768     211.197     462.170
  H     -133.953     212.279     463.274

 6  7  8  9  10  11  12  13  14  15  25  28  32  33  34  35 0
 6-311+G(2d,p)
 ****
 36  37  40 0
 6-311+G(2d,p)
 ****
 1  2  3  4  5  16  17  18  19  20  21  22  23  24 0
 3-21G
 ****
 26  27  29  30  31  38  39 41  42  43  44  45  46  47  48 0
 3-21G
 ****


