%nproc=1
%NoSave
%Mem=1900MB
#P OB98/GEN NMR

erre ene a

0 1
  C      -42.676     -79.162    -186.677
  O      -42.303     -78.233    -187.675
  H      -42.669     -80.165    -187.110
  H      -43.685     -78.940    -186.322
  H      -41.972     -79.134    -185.840
  P      -42.019     -76.727    -187.208
  C      -39.593     -75.799    -187.097
  O      -40.647     -76.281    -187.916
  C      -38.273     -75.839    -187.867
  O      -38.133     -77.153    -188.478
  C      -38.175     -74.798    -188.991
  O      -36.820     -74.340    -189.063
  C      -38.494     -75.605    -190.235
  O      -37.982     -75.042    -191.435
  C      -37.855     -76.951    -189.878
  N      -38.378     -78.053    -190.683
  C      -37.455     -78.839    -191.367
  O      -36.235     -78.727    -191.275
  N      -37.992     -79.796    -192.190
  C      -39.319     -80.019    -192.408
  O      -39.736     -80.879    -193.175
  C      -40.243     -79.152    -191.665
  C      -39.738     -78.222    -190.852
  O      -41.605     -76.898    -185.673
  O      -43.151     -75.773    -187.394
  H      -42.393     -76.849    -185.100
  H      -37.039     -74.828    -191.279
  H      -37.337     -80.373    -192.693
  H      -41.305     -79.293    -191.821
  H      -40.391     -77.551    -190.305
  H      -36.766     -76.897    -189.990
  H      -39.580     -75.707    -190.345
  H      -38.848     -73.944    -188.870
  H      -37.447     -75.726    -187.156
  H      -39.505     -76.431    -186.208
  H      -39.820     -74.775    -186.782
  P      -36.512     -72.862    -188.519
  C      -34.283     -71.483    -188.511
  O      -35.096     -72.455    -189.153
  O      -36.190     -73.160    -186.982
  O      -37.633     -71.906    -188.759
  H      -35.731     -74.007    -186.847
  H      -33.384     -71.342    -189.074
  H      -34.038     -71.818    -187.525
  H      -34.815     -70.557    -188.451

 6  7  8  9  10  11  12  13  14  15  16  27  31  32  33  34  35 0
 6-311+G(2d,p)
 ****
 36  37 0
 6-311+G(2d,p)
 ****
 1  2  3  4  5  17  18  19  20  21  22  23  24  25 0
 3-21G
 ****
 26  28  29  30  38  39  40  41  42  43  44  45 0
 3-21G
 ****


