%nproc=1
%NoSave
%Mem=1900MB
#P OB98/GEN NMR

erre ene a

0 1
  C     -230.176    -609.347     229.980
  O     -231.404    -608.682     230.174
  P     -232.236    -608.087     228.942
  C     -234.381    -609.174     229.873
  O     -233.764    -607.966     229.428
  C     -235.542    -608.853     230.821
  O     -234.998    -608.525     232.134
  C     -236.392    -607.651     230.347
  O     -237.794    -607.916     230.269
  C     -235.989    -606.551     231.309
  O     -236.930    -605.499     231.408
  C     -235.702    -607.348     232.590
  N     -234.937    -606.577     233.568
  C     -235.611    -605.560     234.242
  O     -236.792    -605.280     234.077
  N     -234.846    -604.810     235.101
  C     -233.500    -604.891     235.250
  O     -232.871    -604.119     235.966
  C     -232.840    -605.958     234.488
  C     -233.571    -606.760     233.713
  O     -232.058    -608.809     227.649
  O     -231.780    -606.553     228.903
  H     -237.766    -605.878     231.738
  H     -231.964    -606.050     229.712
  H     -235.328    -604.067     235.590
  H     -231.765    -606.041     234.581
  H     -233.113    -607.553     233.131
  H     -236.622    -607.682     233.064
  H     -235.057    -606.107     230.939
  H     -236.126    -607.361     229.326
  H     -236.156    -609.754     230.916
  H     -233.641    -609.769     230.405
  H     -234.726    -609.755     229.006
  P     -238.578    -608.358     228.947
  C     -240.805    -609.337     229.876
  O     -240.152    -608.263     229.239
  O     -238.128    -609.650     228.345
  O     -238.317    -607.142     227.935
  H     -238.337    -607.472     227.012
  H     -241.849    -609.355     229.549
  H     -240.774    -609.192     230.962
  H     -240.339    -610.295     229.627
  H     -229.788    -609.664     230.926
  H     -229.480    -608.681     229.514
  H     -230.328    -610.201     229.353

 3  4  5  6  7  8  9  10  11  12  13  23  28  29  30  31  32 0
 6-311+G(2d,p)
 ****
 33  34 0
 6-311+G(2d,p)
 ****
 1  2  14  15  16  17  18  19  20  21  22  24  25  26  27 0
 3-21G
 ****
 35  36  37  38  39  40  41  42  43  44  45 0
 3-21G
 ****


