%nproc=1
%NoSave
%Mem=1900MB
#P OB98/GEN NMR

erre ene a

0 1
  C       43.206     113.693     170.635
  O       44.363     113.743     171.443
  H       42.639     114.615     170.784
  H       42.574     112.847     170.924
  H       43.476     113.616     169.579
  P       45.373     112.496     171.410
  C       45.005     109.995     171.980
  O       44.586     111.334     172.199
  C       45.138     109.260     173.311
  O       43.885     109.244     174.030
  C       45.532     107.790     173.196
  O       46.889     107.588     172.846
  C       45.219     107.328     174.607
  O       46.250     107.781     175.503
  C       43.884     108.055     174.872
  N       42.719     107.222     174.577
  C       41.512     107.602     175.173
  O       41.456     108.585     175.910
  N       40.388     106.840     174.946
  C       40.473     105.775     174.209
  N       39.336     105.052     174.023
  C       41.730     105.327     173.577
  C       42.800     106.089     173.799
  O       46.765     112.765     171.883
  O       45.303     111.962     169.902
  H       47.100     107.492     175.127
  H       45.920     111.195     169.826
  H       41.754     104.417     172.997
  H       43.760     105.819     173.374
  H       43.821     108.396     175.914
  H       45.167     106.241     174.700
  H       44.866     107.262     172.502
  H       45.854     109.823     173.926
  H       38.490     105.384     174.469
  H       45.957     110.017     171.446
  H       39.324     104.170     173.528
  H       44.264     109.470     171.369
  P       47.182     106.629     171.588
  C       46.700     104.115     171.072
  O       46.735     105.155     172.037
  O       48.777     106.560     171.551
  O       46.589     107.086     170.293
  H       49.133     107.180     170.884
  H       46.383     103.206     171.539
  H       47.677     103.981     170.657
  H       46.014     104.374     170.293

 6  7  8  9  10  11  12  13  14  15  16  26  30  31  32  33  35 0
 6-311+G(2d,p)
 ****
 37  38 0
 6-311+G(2d,p)
 ****
 1  2  3  4  5  17  18  19  20  21  22  23  24  25 0
 3-21G
 ****
 27  28  29  34  36  39  40  41  42  43  44  45  46 0
 3-21G
 ****


