%nproc=1
%NoSave
%Mem=1900MB
#P OB98/GEN NMR

erre ene a

0 1
  C     -897.630     163.481     630.453
  O     -896.730     162.917     631.384
  H     -898.570     162.915     630.490
  H     -897.220     163.408     629.445
  H     -897.840     164.525     630.699
  P     -895.318     163.656     631.554
  C     -895.135     164.347     634.047
  O     -895.510     164.734     632.732
  C     -896.360     164.152     634.924
  O     -897.160     163.047     634.392
  C     -896.050     163.826     636.395
  O     -897.060     164.444     637.210
  C     -896.250     162.319     636.458
  O     -896.490     161.853     637.777
  C     -897.430     162.160     635.500
  N     -899.030     157.610     636.924
  C     -899.050     158.818     637.592
  N     -899.590     158.817     638.830
  N     -898.590     159.937     637.089
  C     -898.120     159.792     635.823
  C     -898.040     158.662     635.052
  C     -898.530     157.424     635.638
  O     -898.520     156.322     635.102
  N     -897.470     158.925     633.838
  C     -897.210     160.219     633.868
  N     -897.590     160.791     635.053
  O     -895.232     164.556     630.231
  O     -894.138     162.759     631.696
  H     -897.200     162.407     638.168
  H     -894.748     164.081     629.530
  H     -899.390     156.779     637.360
  H     -896.750     160.786     633.071
  H     -898.380     162.462     635.955
  H     -895.358     161.807     636.072
  H     -900.000     158.012     639.265
  H     -895.067     164.149     636.727
  H     -899.650     159.704     639.322
  H     -896.990     165.052     634.850
  H     -894.507     165.130     634.482
  H     -894.561     163.413     633.998
  P     -896.840     165.965     637.649
  C     -898.570     167.257     636.191
  O     -897.210     166.896     636.396
  O     -895.252     166.084     637.723
  O     -897.490     166.332     638.946
  H     -895.007     166.779     638.370
  H     -898.648     167.875     635.321
  H     -898.929     167.795     637.044
  H     -899.157     166.373     636.054

 6  7  8  9  10  11  12  13  14  15  26  29  33  34 0
 6-311+G(2d,p)
 ****
 36  38  39  40  41 0
 6-311+G(2d,p)
 ****
 1  2  3  4  5  16  17  18  19  20  21  22  23  24  25 0
 3-21G
 ****
 27  28  30  31  32  35  37  42  43  44  45  46  47 0
 3-21G
 ****
 48  49 0
 3-21G
 ****


