%nproc=1
%NoSave
%Mem=1900MB
#P OB98/GEN NMR

erre ene a

0 1
  C      461.345     351.943    -725.314
  O      462.137     353.088    -725.609
  P      463.061     353.676    -724.433
  C      465.140     355.239    -724.457
  O      464.362     354.270    -725.160
  C      466.306     355.712    -725.318
  O      467.281     354.653    -725.457
  C      465.937     356.108    -726.738
  O      465.419     357.432    -726.814
  C      467.282     356.033    -727.425
  O      468.055     357.212    -727.137
  C      467.920     354.807    -726.752
  N      469.925     351.858    -730.427
  C      470.296     353.066    -729.933
  N      469.695     353.794    -728.966
  C      468.595     353.172    -728.513
  C      468.079     351.957    -728.947
  C      468.798     351.282    -729.944
  N      468.442     350.039    -730.419
  N      466.929     351.644    -728.248
  C      466.765     352.641    -727.406
  N      467.748     353.588    -727.520
  O      463.616     352.355    -723.714
  O      462.366     354.588    -723.480
  H      467.472     357.982    -727.290
  H      463.877     352.558    -722.800
  H      471.184     353.505    -730.382
  H      465.953     352.724    -726.686
  H      468.994     354.933    -726.577
  H      467.209     355.965    -728.517
  H      465.252     355.376    -727.189
  H      466.789     356.556    -724.799
  H      465.524     354.794    -723.541
  H      469.107     349.548    -730.994
  H      467.729     349.526    -729.917
  H      464.490     356.087    -724.200
  P      464.427     357.760    -728.035
  C      462.272     359.197    -728.247
  O      463.404     358.849    -727.471
  O      463.552     356.425    -728.156
  O      465.127     358.097    -729.312
  H      463.207     356.328    -729.069
  H      461.543     359.690    -727.609
  H      461.805     358.298    -728.680
  H      462.566     359.880    -729.060
  H      460.785     351.663    -726.182
  H      460.672     352.171    -724.514
  H      461.982     351.134    -725.024

 3  4  5  6  7  8  9  10  11  12  22  25  29  30  31  32 0
 6-311+G(2d,p)
 ****
 33  36  37 0
 6-311+G(2d,p)
 ****
 1  2  13  14  15  16  17  18  19  20  21  23  24  26 0
 3-21G
 ****
 27  28  34  35  38  39  40  41  42  43  44  45  46  47  48 0
 3-21G
 ****


