%nproc=1
%NoSave
%Mem=1900MB
#P OB98/GEN NMR

erre ene a

0 1
  C       51.492     161.907      25.741
  O       52.532     161.472      24.893
  P       53.207     162.480      23.846
  C       52.456     160.971      21.902
  O       52.423     162.280      22.459
  C       52.310     161.041      20.385
  O       50.964     161.433      20.007
  C       53.201     162.082      19.723
  O       54.595     161.871      19.774
  C       52.566     162.187      18.347
  O       52.995     161.127      17.493
  C       51.062     162.030      18.690
  N       50.350     163.304      18.618
  C       50.221     163.857      17.350
  O       50.668     163.335      16.329
  N       49.583     165.066      17.288
  C       49.112     165.780      18.351
  O       48.589     166.880      18.228
  C       49.291     165.151      19.669
  C       49.892     163.961      19.743
  O       54.692     162.383      23.739
  O       52.683     163.915      24.327
  H       53.945     161.265      17.309
  H       51.714     164.018      24.321
  H       49.490     165.492      16.380
  H       48.917     165.685      20.532
  H       50.037     163.478      20.703
  H       50.584     161.331      17.992
  H       52.824     163.128      17.850
  H       53.032     163.044      20.226
  H       52.483     160.043      19.976
  H       51.625     160.388      22.312
  H       53.389     160.474      22.190
  P       55.673     163.028      19.517
  C       56.976     161.948      17.554
  O       56.109     162.978      17.975
  O       56.755     163.174      20.534
  O       54.747     164.340      19.553
  H       55.270     165.088      19.897
  H       57.201     162.093      16.494
  H       56.499     160.971      17.678
  H       57.913     161.981      18.116
  H       51.175     161.095      26.362
  H       50.667     162.246      25.149
  H       51.844     162.710      26.355

 3  4  5  6  7  8  9  10  11  12  13  23  28  29  30  31  32 0
 6-311+G(2d,p)
 ****
 33  34 0
 6-311+G(2d,p)
 ****
 1  2  14  15  16  17  18  19  20  21  22  24  25  26  27 0
 3-21G
 ****
 35  36  37  38  39  40  41  42  43  44  45 0
 3-21G
 ****


