%nproc=1
%NoSave
%Mem=1900MB
#P OB98/GEN NMR

erre ene a

0 1
  C       45.910    -260.187    -447.358
  O       44.566    -260.638    -447.325
  P       43.902    -261.164    -445.961
  C       41.551    -260.807    -446.972
  O       42.464    -261.727    -446.389
  C       40.134    -261.371    -446.909
  O       39.814    -261.724    -445.549
  C       39.048    -260.403    -447.354
  O       39.011    -260.289    -448.771
  C       37.817    -261.034    -446.715
  O       37.354    -262.140    -447.507
  C       38.387    -261.552    -445.377
  N       38.094    -260.665    -444.257
  C       36.765    -260.620    -443.826
  O       35.899    -261.305    -444.369
  N       36.446    -259.818    -442.759
  C       37.366    -259.107    -442.185
  N       37.005    -258.383    -441.089
  C       38.768    -259.081    -442.641
  C       39.060    -259.879    -443.665
  O       43.874    -260.168    -444.852
  O       44.705    -262.497    -445.612
  H       38.097    -262.771    -447.570
  H       45.516    -262.341    -445.066
  H       39.499    -258.462    -442.140
  H       40.069    -259.936    -444.048
  H       37.984    -262.546    -445.154
  H       36.982    -260.337    -446.593
  H       39.219    -259.410    -446.922
  H       40.103    -262.287    -447.517
  H       36.084    -258.566    -440.709
  H       41.830    -260.656    -448.021
  H       37.696    -258.045    -440.431
  H       41.617    -259.851    -446.446
  P       38.433    -258.930    -449.391
  C       40.152    -258.990    -451.330
  O       38.787    -258.978    -450.957
  O       39.409    -257.810    -448.795
  O       37.001    -258.663    -449.066
  H       38.982    -257.352    -448.046
  H       40.220    -259.260    -452.387
  H       40.711    -259.723    -450.742
  H       40.585    -257.994    -451.194
  H       46.159    -259.881    -448.353
  H       46.560    -260.981    -447.056
  H       46.025    -259.359    -446.691

 3  4  5  6  7  8  9  10  11  12  13  23  27  28  29  30  32 0
 6-311+G(2d,p)
 ****
 34  35 0
 6-311+G(2d,p)
 ****
 1  2  14  15  16  17  18  19  20  21  22  24  25  26 0
 3-21G
 ****
 31  33  36  37  38  39  40  41  42  43  44  45  46 0
 3-21G
 ****


