%nproc=1
%NoSave
%Mem=1900MB
#P OB98/GEN NMR

erre ene a

0 1
  C      -68.254     -28.644     457.979
  O      -66.897     -28.241     457.933
  P      -66.411     -26.880     458.626
  C      -63.952     -27.633     458.625
  O      -64.893     -26.684     458.138
  C      -62.689     -27.608     457.774
  O      -63.005     -28.158     456.470
  C      -62.104     -26.223     457.487
  O      -61.255     -25.720     458.510
  C      -61.276     -26.514     456.244
  O      -60.038     -27.148     456.621
  C      -62.167     -27.503     455.486
  N      -62.256     -25.368     450.837
  C      -61.269     -25.964     451.539
  N      -61.318     -26.491     452.781
  C      -62.559     -26.402     453.282
  C      -63.670     -25.826     452.686
  C      -63.485     -25.290     451.397
  N      -64.501     -24.702     450.675
  N      -64.769     -25.901     453.521
  C      -64.328     -26.524     454.594
  N      -63.006     -26.851     454.493
  O      -66.635     -26.818     460.095
  O      -67.188     -25.730     457.831
  H      -59.534     -26.495     457.148
  H      -67.172     -24.898     458.339
  H      -60.303     -26.021     451.042
  H      -64.928     -26.750     455.464
  H      -61.588     -28.288     454.980
  H      -61.013     -25.612     455.684
  H      -62.892     -25.503     457.234
  H      -61.941     -28.257     458.241
  H      -64.409     -28.632     458.566
  H      -64.310     -24.465     449.714
  H      -65.447     -24.791     451.024
  H      -63.727     -27.426     459.674
  P      -61.949     -24.876     459.692
  C      -60.404     -25.609     461.668
  O      -60.790     -24.601     460.762
  O      -63.197     -25.480     460.234
  O      -62.174     -23.441     459.014
  H      -61.365     -22.948     458.808
  H      -59.505     -25.280     462.201
  H      -60.182     -26.541     461.149
  H      -61.199     -25.777     462.405
  H      -68.368     -29.573     457.461
  H      -68.863     -27.898     457.513
  H      -68.556     -28.765     458.998

 3  4  5  6  7  8  9  10  11  12  22  25  29  30  31  32 0
 6-311+G(2d,p)
 ****
 33  36  37 0
 6-311+G(2d,p)
 ****
 1  2  13  14  15  16  17  18  19  20  21  23  24  26 0
 3-21G
 ****
 27  28  34  35  38  39  40  41  42  43  44  45  46  47  48 0
 3-21G
 ****


