%nproc=1
%NoSave
%Mem=1900MB
#P OB98/GEN NMR

erre ene a

0 1
  C      108.117    1134.230    -194.574
  O      107.280    1134.535    -193.481
  H      108.527    1135.162    -194.973
  H      107.545    1133.737    -195.364
  H      108.947    1133.589    -194.259
  P      106.686    1133.301    -192.639
  C      108.256    1133.638    -190.598
  O      107.872    1132.799    -191.671
  C      108.618    1132.805    -189.364
  O      109.626    1131.830    -189.740
  C      109.172    1133.629    -188.200
  O      108.673    1133.087    -186.977
  C      110.673    1133.404    -188.276
  O      111.326    1133.587    -187.026
  C      110.744    1131.974    -188.837
  N      112.016    1131.729    -189.507
  C      113.087    1131.346    -188.694
  O      112.939    1131.242    -187.474
  N      114.320    1131.143    -189.264
  C      114.488    1131.387    -190.532
  N      115.732    1131.204    -191.036
  C      113.402    1131.857    -191.412
  C      112.203    1131.994    -190.846
  O      106.580    1132.130    -193.721
  O      105.392    1133.561    -191.948
  H      111.096    1132.832    -186.444
  H      105.831    1131.535    -193.527
  H      113.592    1132.075    -192.457
  H      111.342    1132.344    -191.412
  H      110.615    1131.240    -188.034
  H      111.114    1134.113    -188.996
  H      108.909    1134.689    -188.258
  H      107.726    1132.241    -189.062
  H      116.458    1130.899    -190.393
  H      107.422    1134.299    -190.342
  H      115.993    1131.405    -191.994
  H      109.113    1134.252    -190.904
  P      107.780    1134.054    -186.065
  C      105.653    1134.061    -187.553
  O      106.728    1134.813    -187.015
  O      108.805    1135.203    -185.629
  O      107.182    1133.370    -184.876
  H      109.030    1135.113    -184.682
  H      105.042    1134.696    -188.160
  H      105.066    1133.657    -186.755
  H      106.040    1133.262    -188.150

 6  7  8  9  10  11  12  13  14  15  16  26  30  31  32  33  35 0
 6-311+G(2d,p)
 ****
 37  38 0
 6-311+G(2d,p)
 ****
 1  2  3  4  5  17  18  19  20  21  22  23  24  25 0
 3-21G
 ****
 27  28  29  34  36  39  40  41  42  43  44  45  46 0
 3-21G
 ****


