%nproc=1
%NoSave
%Mem=1900MB
#P OB98/GEN NMR

erre ene a

0 1
  C      225.708     836.136     369.484
  O      227.021     836.518     369.103
  H      224.996     836.674     368.859
  H      225.525     836.400     370.533
  H      225.567     835.058     369.339
  P      228.265     835.912     369.924
  C      228.383     833.342     370.111
  O      228.588     834.478     369.282
  C      229.331     832.211     369.727
  O      229.030     831.823     368.355
  C      230.817     832.647     369.779
  O      231.625     831.772     370.562
  C      231.193     832.820     368.304
  O      232.555     832.661     368.017
  C      230.261     831.830     367.592
  N      229.985     832.167     366.191
  C      230.716     831.484     365.220
  O      231.538     830.584     365.452
  N      230.440     831.840     363.927
  C      229.577     832.800     363.516
  O      229.390     833.077     362.338
  C      228.863     833.508     364.576
  C      229.102     833.175     365.859
  O      228.125     835.919     371.414
  O      229.502     836.813     369.457
  H      233.042     833.420     368.418
  H      229.719     837.469     370.144
  H      230.955     831.337     363.216
  H      228.168     834.288     364.290
  H      228.581     833.682     366.683
  H      230.674     830.824     367.616
  H      230.921     833.840     368.010
  H      230.914     833.615     370.295
  H      229.148     831.345     370.367
  H      227.336     833.024     369.976
  H      228.533     833.613     371.167
  P      232.249     832.138     371.989
  C      231.281     832.428     374.404
  O      231.120     831.916     373.098
  O      232.998     833.429     372.044
  O      233.304     830.952     372.260
  H      234.036     831.339     372.777
  H      230.424     832.177     374.994
  H      231.384     833.492     374.360
  H      232.157     832.003     374.848

 6  7  8  9  10  11  12  13  14  15  16  26  31  32  33  34  35 0
 6-311+G(2d,p)
 ****
 36  37 0
 6-311+G(2d,p)
 ****
 1  2  3  4  5  17  18  19  20  21  22  23  24  25 0
 3-21G
 ****
 27  28  29  30  38  39  40  41  42  43  44  45 0
 3-21G
 ****


