%nproc=1
%NoSave
%Mem=1900MB
#P OB98/GEN NMR

erre ene a

0 1
  C      -33.925    -147.171     278.083
  O      -32.719    -147.127     278.844
  P      -32.497    -147.837     280.254
  C      -32.622    -145.662     281.729
  O      -33.165    -146.933     281.391
  C      -33.292    -145.092     282.989
  O      -32.547    -143.913     283.422
  C      -34.738    -144.646     282.737
  O      -35.636    -144.999     283.785
  C      -34.583    -143.166     282.423
  O      -35.787    -142.427     282.585
  C      -33.423    -142.767     283.334
  N      -32.891    -137.692     283.504
  C      -33.883    -138.487     284.047
  N      -34.872    -137.855     284.708
  N      -33.909    -139.790     283.931
  C      -32.905    -140.288     283.181
  C      -31.873    -139.603     282.580
  C      -31.821    -138.168     282.752
  O      -30.959    -137.419     282.312
  N      -31.034    -140.454     281.906
  C      -31.565    -141.645     282.083
  N      -32.702    -141.600     282.858
  O      -31.119    -148.343     280.520
  O      -33.479    -149.117     280.196
  H      -36.452    -142.811     281.984
  H      -33.048    -149.816     280.724
  H      -32.907    -136.697     283.641
  H      -31.169    -142.575     281.687
  H      -33.758    -142.521     284.342
  H      -34.290    -143.078     281.369
  H      -34.980    -136.852     284.725
  H      -35.156    -145.156     281.861
  H      -35.703    -138.417     284.906
  H      -33.237    -145.841     283.786
  H      -32.829    -145.010     280.872
  H      -31.539    -145.723     281.850
  P      -36.518    -146.320     283.941
  C      -38.573    -145.416     282.701
  O      -37.549    -146.393     282.715
  O      -37.471    -146.038     285.194
  O      -35.731    -147.571     284.162
  H      -37.289    -146.691     285.900
  H      -39.343    -145.727     281.992
  H      -38.161    -144.455     282.377
  H      -39.020    -145.308     283.694
  H      -33.798    -146.611     277.180
  H      -34.724    -146.748     278.656
  H      -34.158    -148.187     277.842

 3  4  5  6  7  8  9  10  11  12  23  26  30  31 0
 6-311+G(2d,p)
 ****
 33  35  36  37  38 0
 6-311+G(2d,p)
 ****
 1  2  13  14  15  16  17  18  19  20  21  22  24  25 0
 3-21G
 ****
 27  28  29  32  34  39  40  41  42  43  44  45  46  47  48  49 0
 3-21G
 ****


