%nproc=1
%NoSave
%Mem=1900MB
#P OB98/GEN NMR

erre ene a

0 1
  C     -189.373    -177.361     745.930
  O     -190.311    -176.561     745.237
  H     -189.763    -177.579     746.928
  H     -188.417    -176.835     746.039
  H     -189.209    -178.303     745.400
  P     -189.899    -175.975     743.804
  C     -192.347    -175.191     743.468
  O     -190.967    -174.826     743.485
  C     -193.212    -173.984     743.813
  O     -192.831    -173.435     745.092
  C     -193.072    -172.840     742.811
  O     -193.777    -173.126     741.621
  C     -193.602    -171.678     743.634
  O     -195.039    -171.669     743.643
  C     -193.039    -172.004     745.040
  N     -191.814    -171.282     745.334
  C     -191.390    -171.312     746.669
  O     -192.037    -171.924     747.514
  N     -190.248    -170.625     747.004
  C     -189.586    -169.974     746.104
  N     -188.468    -169.313     746.508
  C     -189.985    -169.929     744.681
  C     -191.105    -170.589     744.377
  O     -189.711    -176.967     742.693
  O     -188.557    -175.150     744.108
  H     -195.311    -171.295     742.780
  H     -187.770    -175.729     744.011
  H     -189.397    -169.381     743.963
  H     -191.465    -170.615     743.356
  H     -193.779    -171.764     745.810
  H     -193.268    -170.720     743.237
  H     -192.011    -172.656     742.603
  H     -194.255    -174.318     743.888
  H     -188.229    -169.363     747.499
  H     -192.479    -175.976     744.222
  H     -187.818    -168.854     745.876
  H     -192.630    -175.596     742.492
  P     -193.072    -172.938     740.187
  C     -195.447    -172.912     739.183
  O     -194.190    -172.251     739.252
  O     -192.434    -174.161     739.631
  O     -192.040    -171.735     740.454
  H     -191.259    -172.044     740.974
  H     -196.102    -172.366     738.537
  H     -195.876    -172.967     740.162
  H     -195.309    -173.901     738.798

 6  7  8  9  10  11  12  13  14  15  16  26  30  31  32  33  35 0
 6-311+G(2d,p)
 ****
 37  38 0
 6-311+G(2d,p)
 ****
 1  2  3  4  5  17  18  19  20  21  22  23  24  25 0
 3-21G
 ****
 27  28  29  34  36  39  40  41  42  43  44  45  46 0
 3-21G
 ****


