%nproc=1
%NoSave
%Mem=1900MB
#P OB98/GEN NMR

erre ene a

0 1
  C      -71.440    -894.570     476.051
  O      -72.733    -895.170     476.116
  P      -72.894    -896.680     475.528
  C      -73.967    -895.680     473.415
  O      -72.987    -896.600     473.938
  C      -74.046    -895.810     471.868
  O      -74.461    -897.140     471.469
  C      -75.062    -894.860     471.276
  O      -74.552    -893.540     471.251
  C      -75.243    -895.500     469.887
  O      -74.185    -895.130     468.983
  C      -75.123    -897.030     470.209
  N      -76.406    -897.710     470.221
  C      -76.876    -898.160     468.976
  O      -76.221    -897.930     467.955
  N      -78.079    -898.830     468.950
  C      -78.761    -899.010     470.026
  N      -79.929    -899.700     469.927
  C      -78.305    -898.540     471.356
  C      -77.151    -897.910     471.390
  O      -73.936    -897.510     476.223
  O      -71.418    -897.310     475.785
  H      -74.331    -895.690     468.201
  H      -71.505    -898.260     475.935
  H      -78.908    -898.730     472.235
  H      -76.758    -897.490     472.313
  H      -74.492    -897.530     469.482
  H      -76.168    -895.210     469.429
  H      -75.998    -894.890     471.817
  H      -73.040    -895.620     471.483
  H      -80.240    -900.000     469.004
  H      -73.689    -894.680     473.701
  H      -80.494    -899.940     470.718
  H      -74.935    -895.910     473.882
  P      -75.104    -892.530     472.356
  C      -77.030    -891.890     470.731
  O      -76.629    -892.260     472.061
  O      -74.363    -891.150     471.983
  O      -74.779    -892.920     473.786
  H      -74.193    -890.640     472.771
  H      -78.109    -892.090     470.622
  H      -76.507    -892.560     469.980
  H      -76.790    -890.880     470.522
  H      -71.482    -893.586     476.470
  H      -71.126    -894.510     475.030
  H      -70.743    -895.164     476.605

 3  4  5  6  7  8  9  10  11  12  13  23  27  28  29  30  32 0
 6-311+G(2d,p)
 ****
 34  35 0
 6-311+G(2d,p)
 ****
 1  2  14  15  16  17  18  19  20  21  22  24  25  26 0
 3-21G
 ****
 31  33  36  37  38  39  40  41  42  43  44  45  46 0
 3-21G
 ****


