%nproc=1
%NoSave
%Mem=1900MB
#P OB98/GEN NMR

erre ene a

0 1
  C      -48.699     109.731    -318.820
  O      -49.415     108.512    -318.868
  P      -50.893     108.534    -319.492
  C      -52.232     108.301    -317.268
  O      -51.856     109.144    -318.352
  C      -53.181     109.044    -316.330
  O      -52.573     110.270    -315.862
  C      -54.493     109.470    -316.977
  O      -55.432     108.404    -317.025
  C      -54.959     110.548    -316.013
  O      -55.568     109.941    -314.854
  C      -53.639     111.229    -315.629
  N      -54.996     116.058    -316.302
  C      -55.334     115.179    -315.289
  N      -56.201     115.634    -314.356
  N      -54.861     113.964    -315.200
  C      -54.012     113.644    -316.205
  C      -53.599     114.432    -317.258
  C      -54.139     115.767    -317.357
  O      -53.919     116.575    -318.254
  N      -52.718     113.758    -318.070
  C      -52.599     112.566    -317.512
  N      -53.391     112.434    -316.404
  O      -51.308     106.992    -319.532
  O      -50.998     109.190    -320.836
  H      -55.594     110.629    -314.159
  H      -52.065     106.864    -320.136
  H      -55.394     116.983    -316.331
  H      -51.964     111.773    -317.881
  H      -53.612     111.495    -314.567
  H      -55.706     111.215    -316.450
  H      -56.648     116.542    -314.409
  H      -54.324     109.910    -317.966
  H      -56.517     114.993    -313.642
  H      -53.364     108.408    -315.458
  H      -51.334     107.999    -316.715
  H      -52.715     107.401    -317.659
  P      -56.449     108.402    -318.275
  C      -58.290     109.645    -316.930
  O      -57.415     109.658    -318.036
  O      -57.381     107.135    -317.972
  O      -55.786     108.315    -319.611
  H      -57.744     106.777    -318.806
  H      -58.674     110.658    -316.773
  H      -57.781     109.310    -316.021
  H      -59.141     108.985    -317.144
  H      -47.737     109.563    -318.382
  H      -49.241     110.440    -318.229
  H      -48.577     110.112    -319.812

 3  4  5  6  7  8  9  10  11  12  23  26  30  31 0
 6-311+G(2d,p)
 ****
 33  35  36  37  38 0
 6-311+G(2d,p)
 ****
 1  2  13  14  15  16  17  18  19  20  21  22  24  25 0
 3-21G
 ****
 27  28  29  32  34  39  40  41  42  43  44  45  46  47  48  49 0
 3-21G
 ****


