%nproc=1
%NoSave
%Mem=1900MB
#P OB98/GEN NMR

erre ene a

0 1
  C      153.784      81.768    -155.806
  O      155.117      81.368    -156.070
  H      153.622      82.775    -156.201
  H      153.104      81.080    -156.316
  H      153.575      81.746    -154.734
  P      156.276      82.048    -155.190
  C      157.372      83.324    -157.168
  O      157.511      82.306    -156.188
  C      158.500      83.228    -158.198
  O      158.179      82.161    -159.143
  C      158.728      84.519    -159.009
  O      160.141      84.684    -159.206
  C      158.076      84.213    -160.346
  O      158.626      84.975    -161.414
  C      158.331      82.709    -160.466
  N      157.122      82.369    -165.397
  C      158.235      82.805    -164.769
  N      158.499      82.809    -163.446
  C      157.492      82.236    -162.755
  C      156.295      81.745    -163.258
  C      156.119      81.843    -164.646
  N      154.958      81.468    -165.291
  N      155.493      81.292    -162.226
  C      156.177      81.532    -161.126
  N      157.389      82.103    -161.393
  O      156.774      80.827    -154.277
  O      155.856      83.223    -154.369
  H      158.179      84.724    -162.246
  H      156.232      80.781    -153.467
  H      159.014      83.206    -165.409
  H      155.834      81.343    -160.120
  H      159.344      82.481    -160.820
  H      157.000      84.426    -160.283
  H      158.316      85.415    -158.534
  H      159.420      82.928    -157.680
  H      157.422      84.302    -156.679
  H      154.882      81.674    -166.278
  H      154.162      81.176    -164.739
  H      156.397      83.224    -157.660
  P      160.748      86.152    -158.985
  C      162.777      85.913    -160.612
  O      162.325      86.096    -159.271
  O      160.663      86.351    -157.399
  O      160.011      87.228    -159.717
  H      160.507      87.289    -157.186
  H      163.847      85.898    -160.629
  H      162.422      86.718    -161.221
  H      162.402      84.986    -160.991

 6  7  8  9  10  11  12  13  14  15  25  28  32  33  34  35 0
 6-311+G(2d,p)
 ****
 36  39  40 0
 6-311+G(2d,p)
 ****
 1  2  3  4  5  16  17  18  19  20  21  22  23  24 0
 3-21G
 ****
 26  27  29  30  31  37  38  41  42  43  44  45  46  47 0
 3-21G
 ****
 48 0
 3-21G
 ****


