%nproc=1
%NoSave
%Mem=1900MB
#P OB98/GEN NMR

erre ene a

0 1
  C     -899.326    -649.153    -893.100
  O     -898.516    -648.254    -893.880
  P     -897.406    -647.340    -893.110
  C     -895.056    -647.882    -894.190
  O     -895.986    -648.077    -893.130
  C     -894.876    -649.210    -894.990
  O     -896.156    -649.634    -895.550
  C     -893.806    -649.123    -896.160
  O     -892.466    -649.332    -895.680
  C     -894.306    -650.138    -897.140
  O     -893.966    -651.483    -896.690
  C     -895.916    -649.954    -896.950
  N     -896.566    -648.960    -897.840
  C     -897.666    -649.281    -898.640
  O     -898.186    -650.339    -898.630
  N     -898.206    -648.231    -899.390
  C     -897.826    -646.919    -899.380
  O     -898.426    -646.023    -900.000
  C     -896.726    -646.592    -898.390
  C     -896.186    -647.498    -897.730
  O     -897.906    -647.413    -891.530
  O     -897.426    -645.946    -893.550
  H     -894.366    -651.592    -895.780
  H     -898.186    -646.552    -891.260
  H     -898.966    -648.490    -900.000
  H     -896.536    -645.502    -898.330
  H     -895.366    -647.264    -897.020
  H     -896.406    -650.946    -897.220
  H     -893.866    -650.011    -898.140
  H     -893.926    -648.103    -896.580
  H     -894.556    -650.066    -894.240
  H     -894.086    -647.607    -893.670
  H     -895.376    -647.093    -894.800
  P     -891.886    -648.544    -894.410
  C     -891.646    -650.556    -892.780
  O     -892.336    -649.353    -893.090
  O     -892.216    -647.048    -894.360
  O     -890.336    -648.797    -894.520
  H     -889.886    -648.071    -894.960
  H     -891.856    -650.929    -891.800
  H     -890.496    -650.274    -892.800
  H     -891.766    -651.336    -893.570
  H     -900.000    -649.677    -893.745
  H     -899.885    -648.595    -892.378
  H     -898.696    -649.856    -892.597

 3  4  5  6  7  8  9  10  11  12  13  23  28  29  30  31  32 0
 6-311+G(2d,p)
 ****
 33  34 0
 6-311+G(2d,p)
 ****
 1  2  14  15  16  17  18  19  20  21  22  24  25  26  27 0
 3-21G
 ****
 35  36  37  38  39  40  41  42  43  44  45 0
 3-21G
 ****


