%nproc=1
%NoSave
%Mem=1900MB
#P OB98/GEN NMR

erre ene a

0 1
  C     -197.173     -56.656      -5.064
  O     -197.942     -57.096      -6.165
  H     -197.569     -57.111      -4.152
  H     -197.255     -55.569      -4.974
  H     -196.125     -56.943      -5.177
  P     -197.319     -56.882      -7.627
  C     -197.061     -59.418      -8.117
  O     -197.686     -58.195      -8.478
  C     -198.015     -60.592      -8.347
  O     -198.899     -60.704      -7.191
  C     -198.896     -60.450      -9.599
  O     -199.069     -61.745     -10.192
  C     -200.229     -60.011      -9.022
  O     -201.319     -60.315      -9.884
  C     -200.240     -60.787      -7.709
  N     -205.114     -60.913      -6.518
  C     -204.378     -61.710      -7.373
  N     -205.051     -62.651      -8.068
  N     -203.087     -61.592      -7.538
  C     -202.533     -60.622      -6.766
  C     -203.151     -59.767      -5.887
  C     -204.584     -59.896      -5.727
  O     -205.295     -59.207      -5.003
  N     -202.250     -58.883      -5.347
  C     -201.096     -59.196      -5.914
  N     -201.217     -60.244      -6.784
  O     -195.746     -57.033      -7.362
  O     -197.652     -55.583      -8.280
  H     -201.358     -61.287      -9.996
  H     -195.349     -56.152      -7.229
  H     -206.109     -61.035      -6.440
  H     -200.157     -58.686      -5.745
  H     -200.490     -61.846      -7.850
  H     -200.222     -58.930      -8.841
  H     -206.039     -62.822      -7.973
  H     -198.500     -59.752     -10.343
  H     -204.516     -63.268      -8.669
  H     -197.426     -61.517      -8.391
  H     -196.787     -59.384      -7.057
  H     -196.149     -59.546      -8.711
  P     -199.723     -61.823     -11.653
  C     -197.859     -63.235     -12.794
  O     -199.212     -63.163     -12.371
  O     -198.959     -60.665     -12.452
  O     -201.201     -61.613     -11.665
  H     -199.566     -60.252     -13.097
  H     -197.678     -64.186     -13.251
  H     -197.214     -63.117     -11.948
  H     -197.665     -62.457     -13.502

 6  7  8  9  10  11  12  13  14  15  26  29  33  34 0
 6-311+G(2d,p)
 ****
 36  38  39  40  41 0
 6-311+G(2d,p)
 ****
 1  2  3  4  5  16  17  18  19  20  21  22  23  24  25 0
 3-21G
 ****
 27  28  30  31  32  35  37  42  43  44  45  46  47 0
 3-21G
 ****
 48  49 0
 3-21G
 ****


