%nproc=1
%NoSave
%Mem=1900MB
#P OB98/GEN NMR

erre ene a

0 1
  C      114.368    -406.880    -207.761
  O      114.329    -408.268    -207.521
  H      114.738    -406.380    -206.862
  H      113.360    -406.511    -207.976
  H      115.038    -406.647    -208.596
  P      114.006    -409.210    -208.787
  C      115.356    -411.241    -207.893
  O      115.230    -410.250    -208.899
  C      116.720    -411.126    -207.208
  O      116.826    -409.845    -206.528
  C      116.983    -412.191    -206.154
  O      117.447    -413.405    -206.731
  C      118.074    -411.517    -205.339
  O      119.335    -411.605    -206.038
  C      117.588    -410.062    -205.303
  N      117.501    -408.110    -200.622
  C      118.560    -408.286    -201.492
  N      119.773    -407.894    -201.048
  N      118.446    -408.805    -202.687
  C      117.176    -409.156    -202.999
  C      116.039    -409.036    -202.223
  C      116.184    -408.453    -200.907
  O      115.274    -408.254    -200.105
  N      114.927    -409.503    -202.876
  C      115.396    -409.919    -204.044
  N      116.754    -409.740    -204.160
  O      114.234    -408.239    -210.038
  O      112.641    -409.813    -208.809
  H      119.130    -411.584    -206.990
  H      113.586    -408.456    -210.732
  H      117.648    -407.720    -199.710
  H      114.785    -410.359    -204.821
  H      118.420    -409.344    -205.306
  H      118.224    -411.979    -204.360
  H      119.942    -407.538    -200.121
  H      116.102    -412.359    -205.510
  H      120.563    -407.981    -201.679
  H      117.491    -411.149    -207.982
  H      115.269    -412.233    -208.352
  H      114.553    -411.114    -207.162
  P      116.595    -414.738    -206.459
  C      115.941    -415.642    -208.804
  O      115.564    -414.852    -207.683
  O      115.651    -414.320    -205.224
  O      117.399    -415.956    -206.164
  H      115.367    -415.114    -204.741
  H      115.158    -415.623    -209.533
  H      116.110    -416.650    -208.489
  H      116.838    -415.247    -209.233

 6  7  8  9  10  11  12  13  14  15  26  29  33  34 0
 6-311+G(2d,p)
 ****
 36  38  39  40  41 0
 6-311+G(2d,p)
 ****
 1  2  3  4  5  16  17  18  19  20  21  22  23  24  25 0
 3-21G
 ****
 27  28  30  31  32  35  37  42  43  44  45  46  47 0
 3-21G
 ****
 48  49 0
 3-21G
 ****


