%nproc=1
%NoSave
%Mem=1900MB
#P OB98/GEN NMR

erre ene a

0 1
  C     -104.224    -367.856      -1.103
  O     -104.211    -367.874       0.311
  H     -105.236    -368.091      -1.445
  H     -103.541    -368.610      -1.495
  H     -103.948    -366.868      -1.484
  P     -102.900    -367.364       1.077
  C     -103.045    -369.386       2.674
  O     -102.964    -367.968       2.560
  C     -101.994    -369.891       3.658
  O     -100.670    -369.724       3.103
  C     -101.983    -369.149       4.990
  O     -103.066    -369.560       5.806
  C     -100.604    -369.526       5.513
  O     -100.619    -370.840       6.094
  C      -99.767    -369.507       4.210
  N      -99.006    -368.271       4.034
  C      -98.079    -367.965       5.024
  O      -97.919    -368.657       6.028
  N      -97.356    -366.815       4.834
  C      -97.523    -365.925       3.810
  O      -96.880    -364.883       3.712
  C      -98.536    -366.285       2.809
  C      -99.221    -367.421       2.961
  O     -102.636    -365.896       1.011
  O     -101.718    -368.205       0.398
  H      -99.687    -371.121       6.166
  H     -101.253    -367.651      -0.258
  H      -96.687    -366.570       5.547
  H      -98.701    -365.598       1.989
  H      -99.980    -367.699       2.239
  H      -99.058    -370.348       4.204
  H     -100.245    -368.845       6.286
  H     -102.010    -368.066       4.821
  H     -102.160    -370.966       3.813
  H     -102.864    -369.829       1.686
  H     -104.052    -369.659       3.007
  P     -104.009    -368.478       6.511
  C     -104.301    -369.416       8.878
  O     -104.904    -369.254       7.600
  O     -104.784    -367.607       5.581
  O     -103.011    -367.615       7.415
  H     -102.867    -366.739       7.005
  H     -104.972    -369.940       9.525
  H     -104.083    -368.455       9.294
  H     -103.394    -369.975       8.776

 6  7  8  9  10  11  12  13  14  15  16  26  31  32  33  34  35 0
 6-311+G(2d,p)
 ****
 36  37 0
 6-311+G(2d,p)
 ****
 1  2  3  4  5  17  18  19  20  21  22  23  24  25 0
 3-21G
 ****
 27  28  29  30  38  39  40  41  42  43  44  45 0
 3-21G
 ****


