%nproc=1
%NoSave
%Mem=1900MB
#P OB98/GEN NMR

erre ene a

0 1
  C       28.821     -28.921    -243.590
  O       29.340     -28.742    -242.284
  P       30.092     -27.386    -241.870
  C       30.794     -26.322    -239.634
  O       30.080     -27.382    -240.264
  C       29.900     -25.623    -238.609
  O       28.806     -24.984    -239.318
  C       29.239     -26.532    -237.573
  O       30.051     -26.836    -236.447
  C       28.073     -25.650    -237.131
  O       28.546     -24.654    -236.207
  C       27.646     -24.992    -238.446
  N       22.755     -26.446    -238.024
  C       23.554     -25.709    -237.216
  N       24.852     -25.385    -237.388
  C       25.307     -25.864    -238.559
  C       24.612     -26.622    -239.494
  C       23.272     -26.914    -239.184
  N       22.450     -27.644    -240.024
  N       25.424     -26.942    -240.563
  C       26.579     -26.376    -240.290
  N       26.560     -25.705    -239.096
  O       29.556     -26.157    -242.522
  O       31.627     -27.661    -242.217
  H       28.844     -25.129    -235.404
  H       32.116     -26.814    -242.252
  H       23.093     -25.344    -236.305
  H       27.454     -26.424    -240.915
  H       27.332     -23.952    -238.311
  H       27.281     -26.210    -236.620
  H       28.842     -27.444    -238.038
  H       30.490     -24.835    -238.117
  H       31.088     -25.599    -240.406
  H       21.476     -27.692    -239.783
  H       22.783     -27.849    -240.959
  H       31.700     -26.715    -239.169
  P       29.615     -28.103    -235.551
  C       30.981     -30.130    -234.600
  O       30.886     -29.081    -235.544
  O       28.325     -28.729    -235.951
  O       29.612     -27.505    -234.068
  H       30.488     -27.245    -233.720
  H       31.827     -30.766    -234.871
  H       30.075     -30.737    -234.599
  H       31.157     -29.715    -233.607
  H       28.361     -29.884    -243.662
  H       29.616     -28.851    -244.302
  H       28.094     -28.163    -243.792

 3  4  5  6  7  8  9  10  11  12  22  25  29  30  31  32 0
 6-311+G(2d,p)
 ****
 33  36  37 0
 6-311+G(2d,p)
 ****
 1  2  13  14  15  16  17  18  19  20  21  23  24  26 0
 3-21G
 ****
 27  28  34  35  38  39  40  41  42  43  44  45  46  47  48 0
 3-21G
 ****


