%nproc=1
%NoSave
%Mem=1900MB
#P OB98/GEN NMR

erre ene a

0 1
  C       61.122     598.571    -211.385
  O       60.493     599.678    -210.741
  P       59.449     600.535    -211.599
  C       60.393     602.860    -212.313
  O       60.338     601.456    -212.572
  C       61.658     603.224    -211.537
  O       62.811     602.718    -212.236
  C       61.882     604.716    -211.380
  O       61.060     605.239    -210.363
  C       63.382     604.750    -211.049
  O       63.594     604.583    -209.637
  C       63.942     603.544    -211.843
  N       64.724     603.957    -212.994
  C       65.897     604.666    -212.699
  O       66.190     604.935    -211.529
  N       66.681     605.108    -213.746
  C       66.318     604.856    -214.973
  N       67.138     605.307    -215.961
  C       65.084     604.122    -215.317
  C       64.329     603.714    -214.288
  O       58.863     601.570    -210.530
  O       58.372     599.735    -212.274
  H       63.180     605.374    -209.214
  H       57.968     601.869    -210.777
  H       64.831     603.939    -216.350
  H       63.410     603.173    -214.456
  H       64.578     602.926    -211.195
  H       63.839     605.705    -211.318
  H       61.708     605.233    -212.322
  H       61.625     602.730    -210.553
  H       67.985     605.803    -215.703
  H       59.517     603.151    -211.712
  H       66.959     605.137    -216.945
  H       60.355     603.395    -213.264
  P       60.512     606.737    -210.531
  C       61.339     608.069    -208.496
  O       61.613     607.663    -209.836
  O       59.309     606.779    -209.482
  O       60.076     607.137    -211.908
  H       58.829     607.630    -209.570
  H       62.229     608.541    -208.086
  H       61.088     607.194    -207.878
  H       60.517     608.785    -208.501
  H       61.790     598.092    -210.700
  H       61.672     598.918    -212.235
  H       60.376     597.873    -211.703

 3  4  5  6  7  8  9  10  11  12  13  21  23  27  28  29  30  32 0
 6-311+G(2d,p)
 ****
 34  35 0
 6-311+G(2d,p)
 ****
 1  2  14  15  16  17  18  19  20  22  24  25  26 0
 3-21G
 ****
 31  33  36  37  38  39  40  41  42  43  44  45  46 0
 3-21G
 ****


