%nproc=1
%NoSave
%Mem=1900MB
#P OB98/GEN NMR

erre ene a

0 1
  C      120.331       1.621      84.155
  O      121.496       2.121      84.778
  H      120.318       0.533      84.262
  H      120.326       1.867      83.090
  H      119.438       2.028      84.637
  P      121.810       3.690      84.658
  C      123.780       3.477      82.989
  O      123.381       3.754      84.322
  C      125.117       4.149      82.686
  O      125.032       5.577      82.876
  C      126.272       3.708      83.578
  O      126.762       2.414      83.268
  C      127.280       4.802      83.265
  O      127.873       4.556      81.977
  C      126.365       6.050      83.223
  N      126.334       6.777      84.491
  C      126.851       8.079      84.479
  O      127.304       8.563      83.443
  N      126.879       8.791      85.654
  C      126.446       8.245      86.747
  N      126.539       8.977      87.893
  C      125.876       6.885      86.801
  C      125.855       6.213      85.652
  O      121.365       4.543      85.803
  O      121.164       4.119      83.257
  H      128.512       3.829      82.092
  H      121.322       5.087      83.141
  H      125.536       6.475      87.741
  H      125.468       5.201      85.614
  H      126.679       6.737      82.428
  H      128.095       4.861      83.992
  H      125.998       3.778      84.636
  H      125.340       3.979      81.625
  H      126.974       9.886      87.826
  H      122.997       3.840      82.316
  H      126.488       8.535      88.806
  H      123.897       2.398      82.847
  P      126.750       1.307      84.433
  C      129.320       1.206      84.016
  O      128.128       0.495      84.310
  O      125.650       0.266      83.922
  O      126.463       1.818      85.809
  H      124.772       0.466      84.302
  H      130.141       0.522      83.969
  H      129.502       1.930      84.783
  H      129.216       1.703      83.074

 6  7  8  9  10  11  12  13  14  15  16  26  30  31  32  33  35 0
 6-311+G(2d,p)
 ****
 37  38 0
 6-311+G(2d,p)
 ****
 1  2  3  4  5  17  18  19  20  21  22  23  24  25 0
 3-21G
 ****
 27  28  29  34  36  39  40  41  42  43  44  45  46 0
 3-21G
 ****


