%nproc=1
%NoSave
%Mem=1900MB
#P OB98/GEN NMR

erre ene a

0 1
  C      179.788     141.397     131.424
  O      180.285     140.197     131.994
  P      179.257     139.311     132.851
  C      180.977     138.865     134.758
  O      179.718     139.416     134.382
  C      181.732     139.841     135.660
  O      182.004     141.066     134.944
  C      180.972     140.266     136.911
  O      180.984     139.237     137.889
  C      181.747     141.521     137.295
  O      182.970     141.161     137.959
  C      182.054     142.141     135.921
  N      181.240     147.188     135.600
  C      182.292     146.472     136.060
  N      182.422     145.128     136.135
  C      181.325     144.518     135.662
  C      180.172     145.115     135.182
  C      180.147     146.520     135.158
  N      179.073     147.246     134.693
  N      179.243     144.163     134.809
  C      179.835     143.011     135.047
  N      181.100     143.172     135.549
  O      179.648     137.812     132.450
  O      177.809     139.600     132.599
  H      182.730     140.641     138.751
  H      178.859     137.237     132.442
  H      183.139     147.052     136.414
  H      179.394     142.039     134.869
  H      183.054     142.585     135.877
  H      181.189     142.183     137.971
  H      179.935     140.528     136.662
  H      182.691     139.382     135.931
  H      181.577     138.677     133.859
  H      179.079     148.245     134.849
  H      178.214     146.750     134.498
  H      180.808     137.914     135.268
  P      179.696     138.279     137.965
  C      179.674     139.046     140.421
  O      178.899     138.815     139.253
  O      180.340     136.914     138.493
  O      178.908     138.184     136.705
  H      180.921     137.058     139.262
  H      179.022     139.454     141.195
  H      180.472     139.766     140.208
  H      180.103     138.107     140.776
  H      180.571     141.886     130.883
  H      179.435     142.042     132.202
  H      178.983     141.168     130.757

 3  4  5  6  7  8  9  10  11  12  22  25  29  30  31  32 0
 6-311+G(2d,p)
 ****
 33  36  37 0
 6-311+G(2d,p)
 ****
 1  2  13  14  15  16  17  18  19  20  21  23  24  26 0
 3-21G
 ****
 27  28  34  35  38  39  40  41  42  43  44  45  46  47  48 0
 3-21G
 ****


