%nproc=1
%NoSave
%Mem=1900MB
#P OB98/GEN NMR

erre ene a

0 1
  C      205.845    -403.303    -206.116
  O      205.176    -402.798    -207.267
  P      204.193    -403.792    -208.057
  C      201.952    -402.526    -207.723
  O      202.762    -403.637    -207.355
  C      201.365    -401.855    -206.485
  O      202.407    -401.218    -205.716
  C      200.346    -400.758    -206.774
  O      199.050    -401.289    -207.041
  C      200.347    -400.004    -205.462
  O      199.546    -400.704    -204.486
  C      201.831    -400.056    -205.059
  N      204.307    -395.922    -203.354
  C      203.611    -396.881    -202.709
  N      202.975    -397.948    -203.232
  C      203.066    -397.943    -204.580
  C      203.708    -397.002    -205.378
  C      204.363    -395.954    -204.707
  N      205.090    -394.986    -205.365
  N      203.584    -397.335    -206.711
  C      202.884    -398.448    -206.719
  N      202.561    -398.866    -205.452
  O      204.682    -405.245    -207.573
  O      204.217    -403.661    -209.540
  H      199.860    -401.628    -204.472
  H      204.431    -405.918    -208.231
  H      203.582    -396.796    -201.631
  H      202.612    -398.999    -207.609
  H      201.968    -400.187    -203.981
  H      199.929    -398.996    -205.546
  H      200.691    -400.100    -207.584
  H      200.917    -402.641    -205.854
  H      201.137    -402.872    -208.360
  H      205.681    -394.384    -204.809
  H      205.298    -395.137    -206.349
  H      202.566    -401.806    -208.289
  P      198.399    -400.936    -208.460
  C      196.999    -403.039    -209.057
  O      198.223    -402.341    -209.216
  O      199.607    -400.230    -209.246
  O      197.191    -400.072    -208.384
  H      199.258    -399.621    -209.931
  H      196.924    -403.793    -209.855
  H      196.147    -402.366    -209.137
  H      196.978    -403.555    -208.097
  H      206.461    -402.535    -205.696
  H      206.455    -404.137    -206.395
  H      205.122    -403.616    -205.392

 3  4  5  6  7  8  9  10  11  12  22  25  29  30  31  32 0
 6-311+G(2d,p)
 ****
 33  36  37 0
 6-311+G(2d,p)
 ****
 1  2  13  14  15  16  17  18  19  20  21  23  24  26 0
 3-21G
 ****
 27  28  34  35  38  39  40  41  42  43  44  45  46  47  48 0
 3-21G
 ****


