%nproc=1
%NoSave
%Mem=1900MB
#P OB98/GEN NMR

erre ene a

0 1
  C     -976.085    1087.572    -411.681
  O     -975.608    1087.267    -412.975
  H     -977.165    1087.395    -411.658
  H     -975.900    1088.610    -411.435
  H     -975.607    1086.915    -410.934
  P     -974.084    1087.618    -413.346
  C     -972.917    1085.424    -412.719
  O     -973.203    1086.749    -412.318
  C     -972.598    1084.511    -411.550
  O     -971.420    1085.012    -410.851
  C     -973.739    1084.416    -410.512
  O     -973.939    1083.047    -410.154
  C     -973.213    1085.193    -409.302
  O     -973.825    1084.787    -408.089
  C     -971.700    1084.920    -409.438
  N     -970.882    1085.881    -408.686
  C     -970.773    1085.638    -407.291
  O     -971.366    1084.673    -406.777
  N     -970.041    1086.498    -406.540
  C     -969.508    1087.548    -407.082
  N     -968.799    1088.377    -406.268
  C     -969.641    1087.872    -408.515
  C     -970.334    1086.995    -409.248
  O     -973.769    1089.082    -413.375
  O     -973.833    1086.882    -414.749
  H     -973.481    1085.366    -407.367
  H     -973.058    1087.285    -415.203
  H     -969.190    1088.763    -408.919
  H     -970.489    1087.154    -410.310
  H     -971.455    1083.915    -409.091
  H     -973.411    1086.269    -409.456
  H     -974.681    1084.833    -410.874
  H     -972.329    1083.519    -411.916
  H     -968.710    1088.114    -405.289
  H     -972.067    1085.444    -413.426
  H     -968.331    1089.207    -406.586
  H     -973.807    1085.016    -413.246
  P     -975.458    1082.513    -410.256
  C     -974.993    1081.301    -412.503
  O     -975.793    1082.262    -411.811
  O     -976.322    1083.815    -409.891
  O     -975.760    1081.373    -409.333
  H     -976.628    1083.762    -408.964
  H     -975.318    1081.232    -413.520
  H     -975.094    1080.346    -412.031
  H     -973.968    1081.605    -412.477

 6  7  8  9  10  11  12  13  14  15  16  26  30  31  32  33  35 0
 6-311+G(2d,p)
 ****
 37  38 0
 6-311+G(2d,p)
 ****
 1  2  3  4  5  17  18  19  20  21  22  23  24  25 0
 3-21G
 ****
 27  28  29  34  36  39  40  41  42  43  44  45  46 0
 3-21G
 ****


