%nproc=1
%NoSave
%Mem=1900MB
#P OB98/GEN NMR

erre ene a

0 1
  C     -226.875     311.365     -93.219
  O     -226.415     312.704     -93.248
  H     -226.060     310.705     -93.542
  H     -227.715     311.246     -93.909
  H     -227.179     311.075     -92.207
  P     -227.310     313.847     -92.570
  C     -225.872     313.255     -90.510
  O     -226.556     314.280     -91.218
  C     -225.604     313.685     -89.066
  O     -224.852     314.942     -89.084
  C     -226.882     313.934     -88.231
  O     -226.580     313.587     -86.868
  C     -227.048     315.435     -88.388
  O     -227.966     315.961     -87.465
  C     -225.585     315.873     -88.261
  N     -225.350     317.250     -88.680
  C     -224.031     317.683     -88.753
  O     -223.057     316.963     -88.504
  N     -223.848     318.993     -89.116
  C     -224.838     319.890     -89.399
  O     -224.616     321.050     -89.741
  C     -226.215     319.382     -89.275
  C     -226.405     318.107     -88.931
  O     -228.759     313.526     -92.410
  O     -227.089     315.116     -93.525
  H     -227.833     315.187     -94.153
  H     -227.721     315.694     -86.550
  H     -222.897     319.318     -89.174
  H     -227.025     320.078     -89.474
  H     -227.407     317.700     -88.825
  H     -225.229     315.745     -87.232
  H     -227.435     315.666     -89.387
  H     -227.739     313.346     -88.579
  H     -224.957     312.942     -88.583
  H     -224.924     313.058     -91.022
  H     -226.481     312.341     -90.518
  P     -227.627     312.862     -85.894
  C     -228.089     310.760     -87.313
  O     -227.542     311.270     -86.106
  O     -229.022     313.401     -85.995
  O     -227.052     313.078     -84.409
  H     -227.801     313.196     -83.787
  H     -227.972     309.697     -87.336
  H     -227.578     311.193     -88.147
  H     -229.129     311.006     -87.365

 6  7  8  9  10  11  12  13  14  15  16  27  31  32  33  34  35 0
 6-311+G(2d,p)
 ****
 36  37 0
 6-311+G(2d,p)
 ****
 1  2  3  4  5  17  18  19  20  21  22  23  24  25 0
 3-21G
 ****
 26  28  29  30  38  39  40  41  42  43  44  45 0
 3-21G
 ****


