%nproc=1
%NoSave
%Mem=1900MB
#P OB98/GEN NMR

erre ene a

0 1
  C     -872.046     -42.022     111.689
  O     -872.100     -43.148     110.801
  P     -873.368     -44.131     110.740
  C     -871.941     -46.170     111.423
  O     -872.843     -45.629     110.463
  C     -871.685     -47.661     111.177
  O     -872.885     -48.430     111.378
  C     -871.196     -47.988     109.768
  O     -869.815     -47.700     109.634
  C     -871.550     -49.472     109.671
  O     -870.551     -50.272     110.329
  C     -872.871     -49.534     110.446
  N     -876.136     -52.328     107.672
  C     -875.080     -52.675     108.452
  N     -874.262     -51.872     109.155
  C     -874.626     -50.583     109.021
  C     -875.665     -50.080     108.259
  C     -876.449     -51.018     107.557
  N     -877.510     -50.662     106.756
  N     -875.724     -48.698     108.346
  C     -874.736     -48.385     109.164
  N     -874.044     -49.484     109.593
  O     -874.446     -43.677     109.813
  O     -873.902     -44.200     112.246
  H     -869.729     -50.209     109.805
  H     -874.863     -44.380     112.247
  H     -874.877     -53.739     108.519
  H     -874.484     -47.374     109.467
  H     -872.945     -50.444     111.056
  H     -871.627     -49.823     108.640
  H     -871.779     -47.429     109.033
  H     -870.953     -47.994     111.924
  H     -872.378     -46.030     112.420
  H     -877.995     -51.389     106.259
  H     -877.724     -49.682     106.625
  H     -870.999     -45.614     111.368
  P     -869.290     -46.201     109.857
  C     -869.450     -45.680     107.347
  O     -868.605     -45.737     108.477
  O     -868.473     -45.977     111.081
  O     -870.637     -45.327     109.887
  H     -870.497     -44.542     110.447
  H     -869.576     -46.690     106.938
  H     -868.981     -45.049     106.590
  H     -870.427     -45.261     107.603
  H     -871.114     -41.511     111.561
  H     -872.131     -42.361     112.700
  H     -872.852     -41.354     111.468

 3  4  5  6  7  8  9  10  11  12  22  25  29  30  31  32 0
 6-311+G(2d,p)
 ****
 33  36  37 0
 6-311+G(2d,p)
 ****
 1  2  13  14  15  16  17  18  19  20  21  23  24  26 0
 3-21G
 ****
 27  28  34  35  38  39  40  41  42  43  44  45  46  47  48 0
 3-21G
 ****


