%nproc=1
%NoSave
%Mem=1900MB
#P OB98/GEN NMR

erre ene a

0 1
  C      307.247     -67.537     544.833
  O      305.974     -66.959     545.052
  P      305.237     -67.116     546.469
  C      305.294     -64.561     546.839
  O      305.693     -65.838     547.332
  C      305.384     -63.502     547.935
  O      306.759     -63.282     548.320
  C      304.849     -62.135     547.528
  O      303.433     -62.134     547.554
  C      305.503     -61.237     548.577
  O      304.758     -61.245     549.808
  C      306.882     -61.909     548.762
  N      307.943     -61.205     548.052
  C      308.823     -60.476     548.852
  O      308.670     -60.422     550.073
  N      309.845     -59.773     548.248
  C      309.944     -59.789     546.944
  N      310.968     -59.064     546.403
  C      309.018     -60.523     546.068
  C      308.050     -61.203     546.675
  O      305.419     -68.439     547.138
  O      303.713     -66.779     546.114
  H      304.732     -62.176     550.106
  H      303.280     -67.530     545.631
  H      309.138     -60.496     545.000
  H      307.319     -61.765     546.108
  H      307.145     -61.951     549.822
  H      305.560     -60.196     548.241
  H      305.219     -61.869     546.536
  H      304.840     -63.884     548.818
  H      311.567     -58.553     547.034
  H      304.261     -64.634     546.486
  H      311.119     -58.982     545.409
  H      305.937     -64.292     545.982
  P      302.612     -62.110     546.176
  C      300.842     -63.890     546.714
  O      301.993     -63.567     545.950
  O      303.342     -61.538     545.002
  O      301.320     -61.222     546.526
  H      301.161     -60.594     545.795
  H      300.339     -64.739     546.247
  H      300.152     -63.046     546.765
  H      301.154     -64.178     547.731
  H      307.569     -67.324     543.835
  H      307.186     -68.597     544.969
  H      307.949     -67.128     545.529

 3  4  5  6  7  8  9  10  11  12  13  23  27  28  29  30  32 0
 6-311+G(2d,p)
 ****
 34  35 0
 6-311+G(2d,p)
 ****
 1  2  14  15  16  17  18  19  20  21  22  24  25  26 0
 3-21G
 ****
 31  33  36  37  38  39  40  41  42  43  44  45  46 0
 3-21G
 ****


