%nproc=1
%NoSave
%Mem=1900MB
#P OB98/GEN NMR

erre ene a

0 1
  C     -112.733     239.227     911.995
  O     -111.857     239.702     910.997
  H     -112.159     239.056     912.909
  H     -113.175     238.279     911.678
  H     -113.518     239.959     912.201
  P     -112.513     240.171     909.602
  C     -111.990     237.909     908.437
  O     -112.986     238.842     908.845
  C     -112.590     236.868     907.494
  O     -113.727     237.452     906.805
  C     -111.608     236.357     906.433
  O     -111.830     234.958     906.233
  C     -112.008     237.118     905.177
  O     -111.641     236.436     903.983
  C     -113.523     237.289     905.393
  N     -114.045     238.416     904.632
  C     -114.291     238.197     903.266
  O     -114.045     237.095     902.767
  N     -114.739     239.243     902.501
  C     -114.848     240.423     903.028
  N     -115.268     241.425     902.204
  C     -114.541     240.712     904.433
  C     -114.156     239.675     905.176
  O     -111.246     240.651     908.744
  O     -113.556     241.232     909.713
  H     -112.011     236.928     903.223
  H     -111.485     241.379     908.143
  H     -114.627     241.723     904.819
  H     -113.901     239.784     906.223
  H     -114.057     236.372     905.081
  H     -111.520     238.098     905.169
  H     -110.556     236.522     906.703
  H     -112.977     236.032     908.101
  H     -115.448     241.184     901.234
  H     -111.594     237.403     909.321
  H     -115.347     242.385     902.491
  H     -111.172     238.450     907.943
  P     -110.776     233.958     906.914
  C     -109.170     233.683     904.888
  O     -109.355     234.178     906.209
  O     -111.245     232.519     906.387
  O     -110.772     234.021     908.414
  H     -111.657     232.008     907.122
  H     -108.177     233.907     904.559
  H     -109.876     234.147     904.231
  H     -109.318     232.623     904.880

 6  7  8  9  10  11  12  13  14  15  16  26  30  31  32  33  35 0
 6-311+G(2d,p)
 ****
 37  38 0
 6-311+G(2d,p)
 ****
 1  2  3  4  5  17  18  19  20  21  22  23  24  25 0
 3-21G
 ****
 27  28  29  34  36  39  40  41  42  43  44  45  46 0
 3-21G
 ****


