%nproc=1
%NoSave
%Mem=1900MB
#P OB98/GEN NMR

erre ene a

0 1
  C     -429.474    -661.891    -688.198
  O     -428.063    -661.966    -688.229
  P     -427.163    -661.100    -687.226
  C     -427.411    -662.891    -685.403
  O     -427.558    -661.515    -685.726
  C     -426.462    -663.082    -684.227
  O     -425.103    -662.793    -684.644
  C     -426.781    -662.200    -683.012
  O     -426.534    -662.993    -681.834
  C     -425.767    -661.078    -683.121
  O     -425.538    -660.435    -681.886
  C     -424.570    -661.842    -683.701
  N     -423.602    -660.958    -684.335
  C     -422.269    -661.357    -684.312
  O     -421.929    -662.358    -683.666
  N     -421.348    -660.621    -685.008
  C     -421.695    -659.468    -685.513
  N     -420.772    -658.803    -686.246
  C     -423.046    -658.896    -685.337
  C     -423.949    -659.700    -684.776
  O     -427.163    -659.632    -687.482
  O     -425.694    -661.715    -687.391
  H     -425.066    -660.988    -687.594
  H     -425.200    -661.098    -681.241
  H     -423.253    -657.889    -685.661
  H     -424.976    -659.369    -684.628
  H     -424.058    -662.409    -682.910
  H     -426.131    -660.332    -683.834
  H     -427.816    -661.860    -682.998
  H     -426.487    -664.145    -683.940
  H     -419.874    -659.244    -686.384
  H     -426.999    -663.401    -686.283
  H     -421.036    -658.092    -686.929
  H     -428.391    -663.331    -685.188
  P     -427.102    -662.461    -680.432
  C     -429.464    -663.522    -680.566
  O     -428.692    -662.343    -680.552
  O     -426.639    -660.925    -680.454
  O     -426.566    -663.123    -679.208
  H     -426.557    -660.598    -679.536
  H     -430.508    -663.251    -680.725
  H     -429.377    -664.045    -679.613
  H     -429.151    -664.174    -681.386
  H     -429.882    -662.542    -688.942
  H     -429.782    -660.886    -688.396
  H     -429.826    -662.188    -687.232

 3  4  5  6  7  8  9  10  11  12  13  24  27  28  29  30  32 0
 6-311+G(2d,p)
 ****
 34  35 0
 6-311+G(2d,p)
 ****
 1  2  14  15  16  17  18  19  20  21  22  23  25  26 0
 3-21G
 ****
 31  33  36  37  38  39  40  41  42  43  44  45  46 0
 3-21G
 ****


