%nproc=1
%NoSave
%Mem=1900MB
#P OB98/GEN NMR

erre ene a

0 1
  C     -434.649    1047.001    -892.200
  O     -434.794    1045.789    -891.480
  P     -435.949    1044.754    -891.860
  C     -438.445    1045.213    -892.360
  O     -437.342    1045.498    -891.520
  C     -439.403    1046.409    -892.430
  O     -438.875    1047.449    -893.280
  C     -440.793    1046.080    -892.990
  O     -441.580    1045.427    -892.000
  C     -441.283    1047.469    -893.370
  O     -441.836    1048.168    -892.240
  C     -439.994    1048.148    -893.870
  N     -439.901    1048.196    -895.330
  C     -440.649    1049.218    -895.950
  O     -441.350    1049.985    -895.280
  N     -440.619    1049.292    -897.340
  C     -439.927    1048.428    -898.010
  N     -439.934    1048.573    -899.370
  C     -439.167    1047.328    -897.390
  C     -439.209    1047.271    -896.070
  O     -435.812    1043.387    -891.300
  O     -435.935    1044.765    -893.480
  H     -442.167    1049.019    -892.590
  H     -435.169    1044.273    -893.840
  H     -438.621    1046.637    -898.010
  H     -438.662    1046.487    -895.530
  H     -439.942    1049.171    -893.480
  H     -442.069    1047.424    -894.140
  H     -440.672    1045.441    -893.870
  H     -439.503    1046.824    -891.400
  H     -440.497    1049.316    -899.740
  H     -438.979    1044.345    -891.960
  H     -439.474    1047.933    -900.000
  H     -438.075    1044.975    -893.380
  P     -442.766    1044.470    -892.440
  C     -444.781    1044.855    -894.010
  O     -443.966    1045.404    -893.000
  O     -443.187    1043.430    -891.450
  O     -442.222    1043.760    -893.790
  H     -442.434    1042.807    -893.760
  H     -445.722    1045.409    -894.040
  H     -445.008    1043.816    -893.810
  H     -444.280    1044.933    -894.970
  H     -433.826    1047.557    -891.801
  H     -435.546    1047.578    -892.111
  H     -434.465    1046.783    -893.231

 3  4  5  6  7  8  9  10  11  12  13  23  27  28  29  30  32 0
 6-311+G(2d,p)
 ****
 34  35 0
 6-311+G(2d,p)
 ****
 1  2  14  15  16  17  18  19  20  21  22  24  25  26 0
 3-21G
 ****
 31  33  36  37  38  39  40  41  42  43  44  45  46 0
 3-21G
 ****


