%nproc=1
%NoSave
%Mem=1900MB
#P OB98/GEN NMR

erre ene a

0 1
  C       78.320    -232.256    -193.307
  O       79.238    -231.205    -193.533
  H       78.610    -232.822    -192.419
  H       77.326    -231.828    -193.145
  H       78.281    -232.918    -194.176
  P       80.765    -231.636    -193.777
  C       81.012    -231.410    -191.211
  O       81.323    -232.173    -192.368
  C       81.822    -231.915    -190.019
  O       81.382    -233.264    -189.710
  C       83.340    -231.953    -190.262
  O       84.038    -231.307    -189.191
  C       83.684    -233.429    -190.243
  O       84.966    -233.695    -189.686
  C       82.558    -234.023    -189.403
  N       83.757    -238.755    -187.925
  C       83.786    -237.576    -187.262
  N       83.362    -236.368    -187.683
  C       82.833    -236.451    -188.914
  C       82.712    -237.583    -189.703
  C       83.224    -238.777    -189.169
  N       83.245    -239.964    -189.866
  N       82.122    -237.275    -190.916
  C       81.930    -235.972    -190.875
  N       82.359    -235.428    -189.692
  O       81.514    -230.232    -193.970
  O       80.977    -232.537    -194.945
  H       85.013    -233.230    -188.831
  H       81.911    -230.208    -194.862
  H       84.214    -237.610    -186.264
  H       81.533    -235.370    -191.683
  H       82.754    -233.919    -188.328
  H       83.663    -233.816    -191.270
  H       83.626    -231.489    -191.211
  H       81.589    -231.292    -189.146
  H       79.944    -231.508    -190.983
  H       83.734    -240.743    -189.454
  H       82.950    -239.960    -190.834
  H       81.235    -230.357    -191.407
  P       83.895    -229.706    -189.111
  C       86.084    -229.100    -190.372
  O       84.661    -229.075    -190.376
  O       84.817    -229.318    -187.863
  O       82.490    -229.237    -188.919
  H       84.294    -228.823    -187.204
  H       86.451    -228.649    -191.270
  H       86.423    -230.113    -190.317
  H       86.448    -228.556    -189.525

 6  7  8  9  10  11  12  13  14  15  25  28  32  33  34  35 0
 6-311+G(2d,p)
 ****
 36  39  40 0
 6-311+G(2d,p)
 ****
 1  2  3  4  5  16  17  18  19  20  21  22  23  24 0
 3-21G
 ****
 26  27  29  30  31  37  38  41  42  43  44  45  46  47  48 0
 3-21G
 ****


