%nproc=1
%NoSave
%Mem=1900MB
#P OB98/GEN NMR

erre ene a

0 1
  C       13.763     790.029    -297.155
  O       12.405     790.027    -297.570
  P       12.050     790.763    -298.948
  C       11.290     788.739    -300.419
  O       12.326     789.682    -300.105
  C       11.686     787.346    -299.952
  O       11.878     787.337    -298.521
  C       10.631     786.284    -300.236
  O       10.652     785.896    -301.593
  C       11.052     785.179    -299.268
  O       12.044     784.329    -299.864
  C       11.652     785.973    -298.083
  N       10.804     785.948    -296.894
  C       11.194     785.057    -295.890
  O       12.206     784.364    -296.044
  N       10.425     784.965    -294.752
  C        9.358     785.694    -294.644
  N        8.638     785.563    -293.498
  C        8.892     786.617    -295.689
  C        9.642     786.689    -296.789
  O       13.242     791.806    -299.122
  O       10.705     791.418    -298.981
  H       12.688     784.932    -300.286
  H       12.963     792.569    -299.670
  H        7.982     787.196    -295.551
  H        9.382     787.340    -297.606
  H       12.634     785.566    -297.800
  H       10.213     784.539    -298.984
  H        9.629     786.653    -299.954
  H       12.646     787.083    -300.431
  H        8.975     784.908    -292.793
  H       11.140     788.727    -301.498
  H        7.802     786.097    -293.305
  H       10.363     789.070    -299.941
  P        9.402     786.292    -302.500
  C       10.829     787.086    -304.478
  O        9.942     787.473    -303.454
  O        8.467     787.090    -301.470
  O        8.672     785.176    -303.178
  H        7.615     787.305    -301.891
  H       10.995     787.941    -305.141
  H       10.428     786.266    -305.066
  H       11.797     786.801    -304.052
  H       13.853     789.506    -296.226
  H       14.096     791.038    -297.030
  H       14.363     789.544    -297.896

 3  4  5  6  7  8  9  10  11  12  13  21  23  27  28  29  30  32 0
 6-311+G(2d,p)
 ****
 34  35 0
 6-311+G(2d,p)
 ****
 1  2  14  15  16  17  18  19  20  22  24  25  26 0
 3-21G
 ****
 31  33  36  37  38  39  40  41  42  43  44  45  46 0
 3-21G
 ****


