%nproc=1
%NoSave
%Mem=1900MB
#P OB98/GEN NMR

erre ene a

0 1
  C      155.714     111.159     -66.328
  O      154.764     110.698     -65.384
  P      154.748     109.159     -64.940
  C      154.559     106.889     -66.136
  O      154.253     108.278     -66.188
  C      153.341     106.056     -66.540
  O      152.210     106.356     -65.685
  C      152.849     106.320     -67.951
  O      153.709     105.764     -68.932
  C      151.451     105.708     -67.899
  O      151.515     104.282     -68.061
  C      151.018     106.065     -66.460
  N      150.075     107.179     -66.421
  C      148.719     106.839     -66.459
  O      148.373     105.663     -66.597
  N      147.787     107.842     -66.343
  C      148.174     109.081     -66.319
  N      147.210     110.030     -66.142
  C      149.590     109.486     -66.444
  C      150.479     108.492     -66.466
  O      154.040     108.875     -63.656
  O      156.300     108.769     -64.831
  H      156.457     108.334     -63.968
  H      152.161     103.959     -67.398
  H      149.853     110.534     -66.491
  H      151.545     108.699     -66.535
  H      150.554     105.194     -65.975
  H      150.794     106.100     -68.681
  H      152.762     107.404     -68.118
  H      153.599     104.997     -66.412
  H      146.252     109.712     -66.045
  H      154.857     106.633     -65.112
  H      147.421     110.962     -65.793
  H      155.403     106.680     -66.803
  P      154.172     106.729     -70.124
  C      153.006     108.026     -72.039
  O      152.861     107.127     -70.955
  O      154.965     105.738     -71.112
  O      155.033     107.875     -69.700
  H      155.719     106.208     -71.510
  H      152.135     107.925     -72.693
  H      153.910     107.814     -72.619
  H      153.045     109.053     -71.661
  H      155.570     112.206     -66.497
  H      155.588     110.628     -67.249
  H      156.701     110.991     -65.951

 3  4  5  6  7  8  9  10  11  12  13  24  27  28  29  30  32 0
 6-311+G(2d,p)
 ****
 34  35 0
 6-311+G(2d,p)
 ****
 1  2  14  15  16  17  18  19  20  21  22  23  25  26 0
 3-21G
 ****
 31  33  36  37  38  39  40  41  42  43  44  45  46 0
 3-21G
 ****


