%nproc=1
%NoSave
%Mem=1900MB
#P OB98/GEN NMR

erre ene a

0 1
  C      223.941    -891.170    -166.353
  O      224.575    -891.190    -165.088
  H      224.626    -890.730    -167.084
  H      223.025    -890.580    -166.316
  H      223.704    -892.200    -166.677
  P      223.755    -891.730    -163.826
  C      225.648    -893.490    -163.689
  O      224.252    -893.240    -163.570
  C      225.996    -894.870    -163.110
  O      226.112    -894.720    -161.662
  C      224.911    -895.910    -163.396
  O      225.418    -897.090    -163.999
  C      224.200    -896.060    -162.043
  O      223.575    -897.300    -161.840
  C      225.317    -895.720    -161.027
  N      224.803    -895.240    -159.746
  C      225.137    -895.960    -158.614
  O      225.845    -896.970    -158.611
  N      224.627    -895.480    -157.425
  C      223.835    -894.380    -157.292
  O      223.425    -894.000    -156.195
  C      223.516    -893.650    -158.529
  C      223.993    -894.110    -159.679
  O      222.279    -891.550    -163.885
  O      224.398    -890.920    -162.584
  H      223.129    -897.280    -160.963
  H      223.796    -890.200    -162.318
  H      224.877    -896.000    -156.608
  H      222.864    -892.810    -158.447
  H      223.753    -893.620    -160.617
  H      225.937    -896.600    -160.850
  H      223.421    -895.290    -161.979
  H      224.188    -895.530    -164.124
  H      226.972    -895.180    -163.506
  H      226.183    -892.700    -163.135
  H      225.928    -893.450    -164.751
  P      224.662    -897.940    -165.127
  C      226.817    -898.130    -166.607
  O      225.455    -897.740    -166.499
  O      223.181    -897.780    -165.175
  O      224.981    -899.480    -164.723
  H      224.179    -900.000    -164.985
  H      227.171    -897.919    -167.594
  H      226.904    -899.179    -166.414
  H      227.401    -897.586    -165.894

 6  7  8  9  10  11  12  13  14  15  16  26  31  32  33  34  35 0
 6-311+G(2d,p)
 ****
 36  37 0
 6-311+G(2d,p)
 ****
 1  2  3  4  5  17  18  19  20  21  22  23  24  25 0
 3-21G
 ****
 27  28  29  30  38  39  40  41  42  43  44  45 0
 3-21G
 ****


