%nproc=1
%NoSave
%Mem=1900MB
#P OB98/GEN NMR

erre ene a

0 1
  C       75.238      12.034      48.433
  O       75.149      12.331      49.811
  P       76.057      11.574      50.894
  C       73.925      10.370      51.678
  O       75.271      10.220      51.253
  C       73.356       9.049      52.200
  O       73.324       8.074      51.122
  C       74.144       8.429      53.362
  O       73.182       7.773      54.194
  C       75.019       7.411      52.656
  O       75.519       6.413      53.536
  C       74.062       6.914      51.565
  N       74.770       6.259      50.473
  C       74.981       4.884      50.594
  O       74.645       4.293      51.623
  N       75.616       4.218      49.576
  C       76.091       4.888      48.574
  N       76.705       4.174      47.593
  C       76.001       6.355      48.467
  C       75.323       6.970      49.433
  O       76.461      12.396      52.070
  O       77.296      11.036      50.036
  H       76.001       5.745      53.002
  H       77.930      11.772      49.847
  H       76.461       6.876      47.641
  H       75.203       8.044      49.441
  H       73.336       6.204      51.983
  H       75.880       7.917      52.203
  H       74.722       9.155      53.937
  H       72.318       9.227      52.505
  H       76.731       3.168      47.699
  H       73.332      10.691      50.817
  H       77.035       4.586      46.733
  H       73.857      11.151      52.441
  P       73.408       7.631      55.774
  C       74.622       5.425      55.322
  O       74.674       6.675      55.982
  O       72.193       7.244      56.554
  O       73.957       9.068      56.227
  H       73.881       9.154      57.196
  H       75.625       4.991      55.300
  H       74.260       5.537      54.296
  H       73.955       4.750      55.868
  H       74.551      12.649      47.891
  H       74.997      11.004      48.274
  H       76.234      12.225      48.091

 3  4  5  6  7  8  9  10  11  12  13  23  27  28  29  30  32 0
 6-311+G(2d,p)
 ****
 34  35 0
 6-311+G(2d,p)
 ****
 1  2  14  15  16  17  18  19  20  21  22  24  25  26 0
 3-21G
 ****
 31  33  36  37  38  39  40  41  42  43  44  45  46 0
 3-21G
 ****


