%nproc=1
%NoSave
%Mem=1900MB
#P OB98/GEN NMR

erre ene a

0 1
  C      -83.101     319.339     643.599
  O      -82.435     320.495     643.097
  P      -83.366     321.780     642.779
  C      -82.309     323.370     644.557
  O      -82.509     323.087     643.183
  C      -80.929     323.991     644.783
  O      -79.887     322.990     644.747
  C      -80.533     325.029     643.734
  O      -81.145     326.283     643.963
  C      -79.031     325.099     643.950
  O      -78.732     325.990     645.037
  C      -78.681     323.648     644.323
  N      -74.452     322.589     641.708
  C      -74.643     323.433     642.795
  N      -73.535     324.066     643.265
  N      -75.795     323.637     643.363
  C      -76.814     322.921     642.810
  C      -76.754     322.064     641.738
  C      -75.468     321.863     641.095
  O      -75.246     321.164     640.108
  N      -77.974     321.513     641.463
  C      -78.769     322.017     642.386
  N      -78.116     322.891     643.224
  O      -84.478     321.704     643.922
  O      -83.966     321.777     641.416
  H      -78.892     325.486     645.869
  H      -85.301     322.134     643.627
  H      -73.533     322.484     641.310
  H      -79.822     321.772     642.500
  H      -77.973     323.609     645.167
  H      -78.490     325.481     643.080
  H      -72.603     323.905     642.919
  H      -80.740     324.653     642.715
  H      -73.641     324.650     644.078
  H      -80.933     324.466     645.787
  H      -82.385     322.447     645.142
  H      -83.108     324.039     644.907
  P      -81.078     327.365     642.770
  C      -83.648     327.337     642.421
  O      -82.505     328.080     642.761
  O      -81.096     326.452     641.457
  O      -79.889     328.266     642.825
  H      -80.629     326.902     640.717
  H      -83.627     326.337     642.883
  H      -83.706     327.223     641.332
  H      -84.551     327.853     642.761
  H      -82.386     318.561     643.770
  H      -83.826     319.007     642.885
  H      -83.591     319.581     644.519

 3  4  5  6  7  8  9  10  11  12  23  26  30  31  33  0
 6-311+G(2d,p)
 ****
 35  36  37  38 0
 6-311+G(2d,p)
 ****
 1  2  13  14  15  16  17  18  19  20  21  22  24  25  27  28  29 0
 3-21G
 ****
 32  34  39  40  41  42  43  44  45  46  47  48  49 0
 3-21G
 ****


