%nproc=1
%NoSave
%Mem=1900MB
#P OB98/GEN NMR

erre ene a

0 1
  C     -346.834     -25.114     175.951
  O     -347.866     -24.557     176.752
  P     -348.573     -23.213     176.228
  C     -346.794     -21.714     177.469
  O     -347.435     -22.082     176.254
  C     -345.797     -20.581     177.219
  O     -344.674     -21.080     176.461
  C     -346.354     -19.417     176.407
  O     -347.185     -18.575     177.191
  C     -345.066     -18.765     175.910
  O     -344.500     -17.933     176.941
  C     -344.167     -19.991     175.650
  N     -344.094     -20.367     174.245
  C     -342.967     -19.939     173.542
  O     -342.067     -19.276     174.063
  N     -342.920     -20.277     172.216
  C     -343.895     -20.935     171.524
  O     -343.819     -21.175     170.324
  C     -345.075     -21.336     172.299
  C     -345.119     -21.040     173.607
  O     -349.516     -22.870     177.476
  O     -349.284     -23.390     174.924
  H     -349.155     -23.229     178.311
  H     -343.707     -17.519     176.555
  H     -342.107     -19.999     171.697
  H     -345.874     -21.851     171.780
  H     -345.984     -21.318     174.195
  H     -343.147     -19.793     176.014
  H     -345.229     -18.133     175.032
  H     -346.926     -19.801     175.548
  H     -345.425     -20.228     178.190
  H     -346.266     -22.582     177.872
  H     -347.559     -21.406     178.193
  P     -348.388     -17.829     176.419
  C     -347.065     -15.573     176.374
  O     -347.726     -16.590     175.650
  O     -349.172     -17.167     177.646
  O     -349.212     -18.744     175.574
  H     -348.574     -16.769     178.313
  H     -346.397     -15.037     175.694
  H     -346.477     -15.991     177.200
  H     -347.803     -14.870     176.772
  H     -346.458     -25.999     176.419
  H     -346.042     -24.403     175.844
  H     -347.225     -25.360     174.986

 3  4  5  6  7  8  9  10  11  12  13  24  28  29  30  31  32 0
 6-311+G(2d,p)
 ****
 33  34 0
 6-311+G(2d,p)
 ****
 1  2  14  15  16  17  18  19  20  21  22  23  25  26  27 0
 3-21G
 ****
 35  36  37  38  39  40  41  42  43  44  45 0
 3-21G
 ****


