%nproc=1
%NoSave
%Mem=1900MB
#P OB98/GEN NMR

erre ene a

0 1
  C     -271.199    -169.012     138.247
  O     -270.342    -169.830     137.476
  H     -270.917    -167.966     138.090
  H     -271.087    -169.242     139.311
  H     -272.239    -169.145     137.939
  P     -270.544    -171.420     137.534
  C     -268.378    -171.955     138.854
  O     -269.792    -171.861     138.888
  C     -267.903    -173.113     139.731
  O     -268.472    -173.032     141.059
  C     -268.293    -174.500     139.230
  O     -267.549    -174.932     138.107
  C     -267.994    -175.317     140.476
  O     -266.574    -175.503     140.601
  C     -268.546    -174.388     141.580
  N     -269.920    -174.719     141.962
  C     -270.093    -175.872     142.736
  O     -269.132    -176.562     143.062
  N     -271.371    -176.238     143.101
  C     -272.379    -175.527     142.710
  N     -273.621    -175.938     143.098
  C     -272.241    -174.315     141.873
  C     -271.002    -173.971     141.543
  O     -270.151    -172.179     136.306
  O     -272.080    -171.615     137.940
  H     -266.414    -175.903     141.473
  H     -272.261    -172.586     137.981
  H     -273.123    -173.779     141.546
  H     -270.819    -173.098     140.927
  H     -267.909    -174.426     142.476
  H     -268.449    -176.312     140.453
  H     -269.375    -174.553     139.032
  H     -266.813    -173.017     139.841
  H     -273.685    -176.770     143.663
  H     -267.963    -171.003     139.200
  H     -274.470    -175.491     142.768
  H     -268.041    -172.138     137.828
  P     -268.385    -175.553     136.876
  C     -269.014    -177.855     137.948
  O     -269.443    -176.572     137.524
  O     -267.314    -176.504     136.162
  O     -268.985    -174.547     135.942
  H     -266.922    -176.056     135.385
  H     -269.846    -178.394     138.351
  H     -268.260    -177.749     138.699
  H     -268.613    -178.391     137.113

 6  7  8  9  10  11  12  13  14  15  16  26  30  31  32  33  35 0
 6-311+G(2d,p)
 ****
 37  38 0
 6-311+G(2d,p)
 ****
 1  2  3  4  5  17  18  19  20  21  22  23  24  25 0
 3-21G
 ****
 27  28  29  34  36  39  40  41  42  43  44  45  46 0
 3-21G
 ****


