%nproc=1
%NoSave
%Mem=1900MB
#P OB98/GEN NMR

erre ene a

0 1
  C      282.514     590.789      -5.648
  O      283.356     589.862      -6.316
  H      282.954     591.024      -4.676
  H      281.523     590.350      -5.490
  H      282.429     591.710      -6.231
  P      282.827     589.312      -7.731
  C      283.902     586.938      -7.618
  O      283.947     588.251      -8.156
  C      285.261     586.263      -7.770
  O      285.511     585.950      -9.160
  C      286.448     587.134      -7.336
  O      286.617     587.172      -5.923
  C      287.578     586.408      -8.027
  O      287.906     585.206      -7.302
  C      286.947     586.089      -9.400
  N      287.209     587.106     -10.408
  C      288.529     587.300     -10.797
  O      289.437     586.636     -10.275
  N      288.828     588.258     -11.736
  C      287.876     588.974     -12.254
  N      288.212     589.921     -13.168
  C      286.445     588.796     -11.902
  C      286.192     587.861     -10.978
  O      283.100     590.531      -8.738
  O      281.428     588.796      -7.743
  H      288.071     585.477      -6.377
  H      282.921     590.239      -9.664
  H      285.691     589.416     -12.343
  H      285.167     587.676     -10.661
  H      287.312     585.122      -9.781
  H      288.496     587.016      -8.081
  H      286.376     588.149      -7.740
  H      285.242     585.312      -7.218
  H      289.201     590.061     -13.361
  H      283.138     586.369      -8.157
  H      287.567     590.632     -13.489
  H      283.638     586.969      -6.555
  P      286.358     588.558      -5.173
  C      288.785     588.920      -4.307
  O      287.430     588.643      -3.978
  O      284.975     588.321      -4.409
  O      286.299     589.764      -6.065
  H      284.424     589.112      -4.426
  H      289.371     588.944      -3.412
  H      288.846     589.868      -4.799
  H      289.158     588.156      -4.957

 6  7  8  9  10  11  12  13  14  15  16  26  30  31  32  33  35 0
 6-311+G(2d,p)
 ****
 37  38 0
 6-311+G(2d,p)
 ****
 1  2  3  4  5  17  18  19  20  21  22  23  24  25 0
 3-21G
 ****
 27  28  29  34  36  39  40  41  42  43  44  45  46 0
 3-21G
 ****


