%nproc=1
%NoSave
%Mem=1900MB
#P OB98/GEN NMR

erre ene a

0 1
  C     -423.981    -248.707     -80.930
  O     -423.416    -249.930     -81.369
  P     -423.541    -250.316     -82.920
  C     -421.287    -251.609     -82.533
  O     -422.552    -251.560     -83.164
  C     -420.584    -252.929     -82.857
  O     -421.264    -254.010     -82.160
  C     -420.564    -253.289     -84.349
  O     -419.320    -253.955     -84.607
  C     -421.724    -254.256     -84.478
  O     -421.618    -255.093     -85.618
  C     -421.627    -255.003     -83.141
  N     -422.869    -255.673     -82.756
  C     -422.816    -257.038     -82.500
  O     -421.795    -257.718     -82.601
  N     -424.007    -257.624     -82.145
  C     -425.224    -257.008     -82.091
  O     -426.257    -257.582     -81.785
  C     -425.224    -255.574     -82.418
  C     -424.065    -254.981     -82.718
  O     -422.791    -249.084     -83.609
  O     -424.943    -250.535     -83.376
  H     -422.040    -248.757     -83.086
  H     -421.482    -254.529     -86.400
  H     -423.985    -258.610     -81.920
  H     -426.173    -255.051     -82.400
  H     -424.043    -253.926     -82.966
  H     -420.811    -255.733     -83.178
  H     -422.663    -253.694     -84.556
  H     -420.654    -252.410     -84.994
  H     -419.564    -252.883     -82.461
  H     -421.417    -251.529     -81.449
  H     -420.684    -250.756     -82.861
  P     -418.672    -253.815     -86.075
  C     -416.173    -254.225     -85.427
  O     -417.327    -254.680     -86.087
  O     -418.128    -252.307     -85.998
  O     -419.624    -254.029     -87.205
  H     -417.621    -252.128     -85.187
  H     -415.498    -255.072     -85.266
  H     -416.411    -253.783     -84.455
  H     -415.658    -253.484     -86.047
  H     -423.816    -248.595     -79.879
  H     -425.033    -248.709     -81.128
  H     -423.521    -247.894     -81.452

 3  4  5  6  7  8  9  10  11  12  13  24  28  29  30  31  32 0
 6-311+G(2d,p)
 ****
 33  34 0
 6-311+G(2d,p)
 ****
 1  2  14  15  16  17  18  19  20  21  22  23  25  26  27 0
 3-21G
 ****
 35  36  37  38  39  40  41  42  43  44  45 0
 3-21G
 ****


