%nproc=1
%NoSave
%Mem=1900MB
#P OB98/GEN NMR

erre ene a

0 1
  C      393.476      41.962    -349.668
  O      393.748      41.148    -348.543
  H      393.464      43.011    -349.367
  H      394.270      41.816    -350.406
  H      392.519      41.691    -350.122
  P      392.571      40.967    -347.467
  C      392.384      38.422    -347.938
  O      392.637      39.438    -346.978
  C      393.363      37.263    -347.757
  O      394.647      37.648    -348.325
  C      393.600      36.858    -346.293
  O      393.710      35.432    -346.230
  C      394.952      37.471    -345.976
  O      395.634      36.789    -344.930
  C      395.648      37.372    -347.329
  N      400.652      37.757    -348.159
  C      399.772      36.762    -348.396
  N      398.439      36.762    -348.194
  C      398.024      37.963    -347.759
  C      398.800      39.075    -347.479
  C      400.184      38.934    -347.681
  N      401.097      39.919    -347.378
  N      398.012      40.103    -346.996
  C      396.788      39.609    -346.962
  N      396.747      38.320    -347.412
  O      391.258      41.013    -348.384
  O      392.530      41.989    -346.382
  H      395.184      36.982    -344.084
  H      390.968      41.936    -348.497
  H      400.195      35.839    -348.789
  H      395.914      40.127    -346.598
  H      396.061      36.373    -347.520
  H      394.819      38.517    -345.678
  H      392.815      37.198    -345.609
  H      392.999      36.409    -348.340
  H      392.513      38.840    -348.943
  H      402.076      39.691    -347.454
  H      400.775      40.758    -346.920
  H      391.354      38.070    -347.830
  P      393.259      34.716    -344.868
  C      391.548      32.958    -345.743
  O      392.842      33.205    -345.200
  O      391.864      35.421    -344.527
  O      394.241      34.871    -343.750
  H      391.742      35.481    -343.563
  H      391.425      31.908    -345.907
  H      391.446      33.479    -346.672
  H      390.802      33.302    -345.057

 6  7  8  9  10  11  12  13  14  15  25  28  32  33  34  35 0
 6-311+G(2d,p)
 ****
 36  39  40 0
 6-311+G(2d,p)
 ****
 1  2  3  4  5  16  17  18  19  20  21  22  23  24 0
 3-21G
 ****
 26  27  29  30  31  37  38  41  42  43  44  45  46  47 0
 3-21G
 ****
 48 0
 3-21G
 ****


