%nproc=1
%NoSave
%Mem=1900MB
#P OB98/GEN NMR

erre ene a

0 1
  C     -204.455    -120.882     -29.764
  O     -205.861    -120.749     -29.825
  H     -203.999    -119.919     -30.010
  H     -204.114    -121.627     -30.486
  H     -204.147    -121.170     -28.755
  P     -206.727    -122.071     -29.552
  C     -206.164    -121.779     -27.034
  O     -206.234    -122.661     -28.145
  C     -207.067    -122.292     -25.915
  O     -206.693    -123.644     -25.563
  C     -206.968    -121.493     -24.621
  O     -207.700    -120.283     -24.679
  C     -207.546    -122.486     -23.626
  O     -208.981    -122.434     -23.603
  C     -207.050    -123.840     -24.180
  N     -205.945    -124.381     -23.399
  C     -206.300    -125.089     -22.253
  O     -207.465    -125.257     -21.901
  N     -205.261    -125.567     -21.499
  C     -203.935    -125.377     -21.751
  O     -203.055    -125.769     -20.994
  C     -203.617    -124.635     -22.986
  C     -204.620    -124.170     -23.737
  O     -206.150    -123.108     -30.625
  O     -208.205    -121.896     -29.676
  H     -206.766    -123.191     -31.376
  H     -209.259    -122.918     -22.801
  H     -205.499    -126.067     -20.661
  H     -202.571    -124.471     -23.219
  H     -204.408    -123.602     -24.636
  H     -207.864    -124.578     -24.168
  H     -207.205    -122.281     -22.611
  H     -205.916    -121.311     -24.368
  H     -208.103    -122.304     -26.282
  H     -206.503    -120.781     -27.336
  H     -205.124    -121.710     -26.697
  P     -207.204    -119.046     -23.786
  C     -205.427    -118.342     -25.593
  O     -205.705    -118.715     -24.258
  O     -207.022    -119.746     -22.362
  O     -208.132    -117.881     -23.806
  H     -206.697    -120.661     -22.425
  H     -204.377    -118.165     -25.703
  H     -205.966    -117.450     -25.834
  H     -205.727    -119.129     -26.253

 6  7  8  9  10  11  12  13  14  15  16  27  31  32  33  34  35 0
 6-311+G(2d,p)
 ****
 36  37 0
 6-311+G(2d,p)
 ****
 1  2  3  4  5  17  18  19  20  21  22  23  24  25 0
 3-21G
 ****
 26  28  29  30  38  39  40  41  42  43  44  45 0
 3-21G
 ****


