%nproc=1
%NoSave
%Mem=1900MB
#P OB98/GEN NMR

erre ene a

0 1
  C      254.888     400.194     313.898
  O      254.922     401.319     313.043
  H      253.995     400.260     314.526
  H      255.768     400.171     314.544
  H      254.830     399.273     313.310
  P      256.199     401.518     312.097
  C      254.774     401.509     309.939
  O      255.818     400.885     310.673
  C      255.145     401.611     308.451
  O      256.213     402.589     308.297
  C      255.645     400.291     307.842
  O      255.287     400.296     306.452
  C      257.144     400.433     308.010
  O      257.841     399.492     307.233
  C      257.322     401.916     307.666
  N      258.608     402.440     308.099
  C      259.702     402.154     307.281
  O      259.554     401.480     306.260
  N      260.941     402.611     307.651
  C      261.086     403.241     308.775
  N      262.341     403.653     309.093
  C      259.963     403.513     309.701
  C      258.761     403.093     309.301
  O      257.502     401.057     312.658
  O      256.216     403.093     311.799
  H      258.761     399.790     307.058
  H      256.922     403.518     312.320
  H      260.138     404.023     310.634
  H      257.878     403.241     309.915
  H      257.228     402.076     306.583
  H      257.435     400.253     309.053
  H      255.227     399.410     308.334
  H      254.279     402.000     307.896
  H      263.082     403.438     308.435
  H      254.628     402.511     310.358
  H      262.576     404.131     309.948
  H      253.844     400.941     310.044
  P      253.772     400.375     305.942
  C      254.400     402.134     304.162
  O      253.521     401.788     305.229
  O      252.761     400.033     306.990
  O      253.685     399.328     304.733
  H      252.784     398.956     304.693
  H      254.129     403.093     303.773
  H      254.325     401.401     303.386
  H      255.406     402.168     304.525

 6  7  8  9  10  11  12  13  14  15  16  26  30  31  32  33  35 0
 6-311+G(2d,p)
 ****
 37  38 0
 6-311+G(2d,p)
 ****
 1  2  3  4  5  17  18  19  20  21  22  23  24  25 0
 3-21G
 ****
 27  28  29  34  36  39  40  41  42  43  44  45  46 0
 3-21G
 ****


