%nproc=1
%NoSave
%Mem=1900MB
#P OB98/GEN NMR

erre ene a

0 1
  C       53.389     -35.817     -98.600
  O       52.220     -36.474     -99.063
  P       52.058     -36.684    -100.645
  C       50.959     -34.348    -100.809
  O       51.974     -35.217    -101.293
  C       51.084     -32.964    -101.434
  O       49.973     -32.142    -100.983
  C       52.382     -32.224    -101.073
  O       52.909     -31.593    -102.249
  C       51.914     -31.126    -100.133
  O       52.798     -30.011    -100.133
  C       50.527     -30.841    -100.707
  N       48.546     -26.279     -99.838
  C       49.193     -26.761    -100.958
  N       49.387     -25.881    -101.966
  N       49.615     -27.990    -101.081
  C       49.324     -28.767    -100.008
  C       48.683     -28.408     -98.846
  C       48.275     -27.027     -98.701
  O       47.779     -26.516     -97.698
  N       48.558     -29.476     -97.995
  C       49.125     -30.477     -98.638
  N       49.649     -30.086     -99.843
  O       50.566     -37.246    -100.779
  O       53.043     -37.611    -101.268
  H       52.833     -29.674    -101.048
  H       50.577     -38.101    -101.250
  H       48.257     -25.317     -99.789
  H       49.209     -31.488     -98.258
  H       50.611     -30.296    -101.657
  H       51.856     -31.526     -99.115
  H       49.056     -24.931    -101.952
  H       53.150     -32.858    -100.620
  H       49.839     -26.222    -102.805
  H       50.986     -33.062    -102.523
  H       51.049     -34.261     -99.721
  H       49.981     -34.780    -101.047
  P       54.465     -31.852    -102.549
  C       55.356     -29.866    -101.121
  O       55.255     -31.266    -101.287
  O       54.793     -30.815    -103.721
  O       54.782     -33.261    -102.926
  H       55.557     -31.122    -104.244
  H       54.719     -29.320    -101.824
  H       56.393     -29.562    -101.277
  H       55.059     -29.607    -100.102
  H       53.361     -35.748     -97.533
  H       53.435     -34.834     -99.019
  H       54.253     -36.373     -98.899

 3  4  5  6  7  8  9  10  11  12  23  26  30  31  33  0
 6-311+G(2d,p)
 ****
 35  36  37  38 0
 6-311+G(2d,p)
 ****
 1  2  13  14  15  16  17  18  19  20  21  22  24  25  27  28  29 0
 3-21G
 ****
 32  34  39  40  41  42  43  44  45  46  47  48  49 0
 3-21G
 ****


