%nproc=1
%NoSave
%Mem=1900MB
#P OB98/GEN NMR

erre ene a

0 1
  C      171.633     125.880      83.141
  O      171.519     127.277      82.964
  H      170.796     125.392      82.634
  H      171.598     125.628      84.204
  H      172.569     125.522      82.705
  P      172.599     128.186      83.733
  C      174.073     128.553      81.612
  O      173.195     129.123      82.571
  C      173.545     128.807      80.206
  O      172.338     128.046      79.969
  C      173.165     130.259      79.921
  O      174.282     131.093      79.673
  C      172.314     130.067      78.680
  O      173.162     129.795      77.550
  C      171.493     128.823      79.076
  N      170.225     129.156      79.731
  C      169.065     129.025      78.955
  O      169.129     128.650      77.787
  N      167.855     129.359      79.517
  C      167.802     129.766      80.747
  N      166.577     130.083      81.245
  C      168.995     129.906      81.601
  C      170.157     129.587      81.037
  O      173.803     127.171      84.017
  O      172.104     128.914      84.937
  H      173.719     130.585      77.423
  H      174.587     127.667      84.359
  H      168.901     130.261      82.617
  H      171.078     129.664      81.605
  H      171.279     128.198      78.201
  H      171.718     130.943      78.424
  H      172.539     130.673      80.720
  H      174.300     128.449      79.494
  H      165.786     130.034      80.615
  H      174.136     127.476      81.803
  H      166.448     130.549      82.135
  H      175.070     128.993      81.710
  P      174.107     132.664      79.959
  C      175.120     132.370      82.341
  O      175.172     133.050      81.093
  O      172.707     132.738      80.727
  O      174.125     133.532      78.740
  H      172.229     133.561      80.502
  H      175.892     132.742      82.982
  H      175.262     131.321      82.182
  H      174.167     132.535      82.798

 6  7  8  9  10  11  12  13  14  15  16  26  30  31  32  33  35 0
 6-311+G(2d,p)
 ****
 37  38 0
 6-311+G(2d,p)
 ****
 1  2  3  4  5  17  18  19  20  21  22  23  24  25 0
 3-21G
 ****
 27  28  29  34  36  39  40  41  42  43  44  45  46 0
 3-21G
 ****


