%nproc=1
%NoSave
%Mem=1900MB
#P OB98/GEN NMR

erre ene a

0 1
  C     -311.293     127.196    -394.506
  O     -311.591     127.702    -393.222
  H     -310.383     126.591    -394.446
  H     -311.115     128.027    -395.195
  H     -312.108     126.570    -394.880
  P     -313.040     128.354    -393.011
  C     -313.246     127.499    -390.570
  O     -313.210     128.625    -391.433
  C     -313.178     127.950    -389.112
  O     -311.882     128.564    -388.867
  C     -314.256     128.971    -388.726
  O     -314.710     128.689    -387.396
  C     -313.512     130.295    -388.736
  O     -314.116     131.275    -387.891
  C     -312.120     129.860    -388.287
  N     -308.271     132.706    -386.709
  C     -309.036     131.778    -386.025
  N     -308.733     131.584    -384.720
  N     -310.011     131.101    -386.572
  C     -310.174     131.373    -387.890
  C     -309.488     132.270    -388.675
  C     -308.433     133.037    -388.049
  O     -307.736     133.888    -388.592
  N     -309.976     132.282    -389.961
  C     -310.951     131.395    -389.949
  N     -311.106     130.810    -388.716
  O     -314.037     127.130    -393.289
  O     -313.351     129.521    -393.887
  H     -315.035     131.411    -388.209
  H     -314.575     127.319    -394.077
  H     -307.540     133.212    -386.230
  H     -311.582     131.142    -390.794
  H     -312.041     129.772    -387.199
  H     -313.489     130.693    -389.760
  H     -307.970     132.034    -384.248
  H     -315.109     128.971    -389.406
  H     -309.258     130.879    -384.213
  H     -313.233     127.061    -388.467
  H     -312.387     126.856    -390.792
  H     -314.169     126.940    -390.743
  P     -316.282     128.881    -387.108
  C     -316.528     126.914    -385.438
  O     -316.595     128.320    -385.634
  O     -316.964     127.811    -388.078
  O     -316.776     130.264    -387.383
  H     -317.404     128.263    -388.821
  H     -316.757     126.685    -384.418
  H     -315.542     126.568    -385.668
  H     -317.234     126.430    -386.080

 6  7  8  9  10  11  12  13  14  15  26  29  33  34 0
 6-311+G(2d,p)
 ****
 36  38  39  40  41 0
 6-311+G(2d,p)
 ****
 1  2  3  4  5  16  17  18  19  20  21  22  23  24  25 0
 3-21G
 ****
 27  28  30  31  32  35  37  42  43  44  45  46  47 0
 3-21G
 ****
 48  49 0
 3-21G
 ****


