%nproc=1
%NoSave
%Mem=1900MB
#P OB98/GEN NMR

erre ene a

0 1
  C     -388.928    -576.047     415.709
  O     -389.461    -577.223     416.284
  H     -389.211    -575.196     416.337
  H     -389.353    -575.907     414.712
  H     -387.836    -576.091     415.645
  P     -388.850    -578.638     415.849
  C     -390.860    -579.257     414.354
  O     -390.074    -579.611     415.487
  C     -392.216    -579.974     414.350
  O     -392.015    -581.401     414.262
  C     -393.007    -579.737     415.645
  O     -393.764    -578.543     415.673
  C     -393.905    -580.967     415.684
  O     -395.097    -580.750     414.905
  C     -393.038    -582.050     415.038
  N     -392.067    -586.861     416.486
  C     -392.804    -586.409     415.405
  N     -393.410    -587.355     414.650
  N     -392.954    -585.143     415.110
  C     -392.367    -584.306     416.010
  C     -391.626    -584.633     417.122
  C     -391.426    -586.039     417.405
  O     -390.789    -586.501     418.351
  N     -391.199    -583.513     417.781
  C     -391.741    -582.515     417.124
  N     -392.443    -582.947     416.023
  O     -388.309    -579.258     417.228
  O     -387.756    -578.573     414.823
  H     -394.839    -580.358     414.051
  H     -387.582    -579.883     417.050
  H     -391.965    -587.851     416.644
  H     -391.633    -581.461     417.387
  H     -393.618    -582.676     414.351
  H     -394.230    -581.196     416.705
  H     -393.421    -588.330     414.904
  H     -392.334    -579.781     416.509
  H     -394.156    -587.054     414.032
  H     -392.779    -579.677     413.468
  H     -390.287    -579.536     413.475
  H     -391.009    -578.174     414.318
  P     -393.021    -577.142     415.908
  C     -394.641    -576.460     417.834
  O     -394.106    -576.147     416.568
  O     -392.857    -576.581     414.418
  O     -391.726    -577.220     416.623
  H     -391.967    -576.782     414.080
  H     -395.340    -575.703     418.123
  H     -393.850    -576.509     418.553
  H     -395.139    -577.406     417.787

 6  7  8  9  10  11  12  13  14  15  26  29  33  34 0
 6-311+G(2d,p)
 ****
 36  38  39  40  41 0
 6-311+G(2d,p)
 ****
 1  2  3  4  5  16  17  18  19  20  21  22  23  24  25 0
 3-21G
 ****
 27  28  30  31  32  35  37  42  43  44  45  46  47 0
 3-21G
 ****
 48  49 0
 3-21G
 ****


