%nproc=1
%NoSave
%Mem=1900MB
#P OB98/GEN NMR

erre ene a

0 1
  C      -20.280    -376.938    -503.690
  O      -18.949    -377.344    -503.397
  P      -18.647    -378.922    -503.358
  C      -18.167    -378.993    -505.920
  O      -18.944    -379.488    -504.837
  C      -17.263    -380.085    -506.491
  O      -18.092    -381.205    -506.923
  C      -16.408    -379.648    -507.693
  O      -15.169    -380.350    -507.606
  C      -17.243    -380.161    -508.865
  O      -16.531    -380.237    -510.094
  C      -17.736    -381.486    -508.291
  N      -19.648    -385.632    -510.612
  C      -18.506    -385.436    -509.913
  N      -18.065    -384.309    -509.318
  C      -18.949    -383.303    -509.484
  C      -20.143    -383.347    -510.183
  C      -20.491    -384.583    -510.767
  N      -21.659    -384.784    -511.483
  N      -20.778    -382.120    -510.163
  C      -19.970    -381.348    -509.463
  N      -18.866    -382.022    -509.020
  O      -19.854    -379.503    -502.487
  O      -17.308    -379.296    -502.789
  H      -15.997    -381.052    -510.126
  H      -19.553    -380.224    -501.903
  H      -17.850    -386.299    -509.823
  H      -20.139    -380.291    -509.267
  H      -16.945    -382.253    -508.289
  H      -18.081    -379.470    -509.030
  H      -16.211    -378.573    -507.725
  H      -16.610    -380.453    -505.677
  H      -17.529    -378.167    -505.566
  H      -21.716    -385.639    -512.025
  H      -22.173    -383.952    -511.766
  H      -18.837    -378.587    -506.693
  P      -13.877    -379.735    -508.336
  C      -13.183    -378.488    -506.185
  O      -13.593    -378.359    -507.531
  O      -14.518    -379.189    -509.696
  O      -12.726    -380.666    -508.517
  H      -15.304    -378.633    -509.520
  H      -12.937    -377.495    -505.799
  H      -12.290    -379.130    -506.119
  H      -13.992    -378.912    -505.586
  H      -20.337    -375.870    -503.683
  H      -20.945    -377.335    -502.952
  H      -20.560    -377.304    -504.656

 3  4  5  6  7  8  9  10  11  12  22  25  29  30  31  32 0
 6-311+G(2d,p)
 ****
 33  36  37 0
 6-311+G(2d,p)
 ****
 1  2  13  14  15  16  17  18  19  20  21  23  24  26 0
 3-21G
 ****
 27  28  34  35  38  39  40  41  42  43  44  45  46  47  48 0
 3-21G
 ****


