%nproc=1
%NoSave
%Mem=1900MB
#P OB98/GEN NMR

erre ene a

0 1
  C     -138.494     108.170     132.204
  O     -138.724     107.357     133.352
  P     -139.407     107.865     134.702
  C     -137.351     106.828     135.957
  O     -138.750     107.070     135.925
  C     -136.908     106.006     137.180
  O     -137.282     106.709     138.396
  C     -137.635     104.661     137.215
  O     -137.148     103.570     136.456
  C     -137.806     104.354     138.697
  O     -136.758     103.535     139.215
  C     -137.772     105.740     139.346
  N     -141.605     104.820     142.608
  C     -140.478     104.065     142.354
  N     -140.377     102.891     143.009
  N     -139.542     104.422     141.514
  C     -139.811     105.577     140.861
  C     -140.902     106.400     141.010
  C     -141.904     106.025     141.985
  O     -142.919     106.661     142.258
  N     -140.844     107.473     140.159
  C     -139.734     107.288     139.478
  N     -139.063     106.149     139.873
  O     -140.895     107.958     134.677
  O     -138.827     109.363     134.870
  H     -136.896     103.439     140.171
  H     -139.533     109.888     135.303
  H     -142.283     104.508     143.285
  H     -139.365     107.942     138.697
  H     -137.076     105.762     140.195
  H     -138.743     103.809     138.872
  H     -141.116     102.503     143.576
  H     -138.649     104.835     136.835
  H     -139.666     102.240     142.665
  H     -135.821     105.912     137.212
  H     -136.861     107.805     135.955
  H     -137.039     106.319     135.042
  P     -137.596     103.179     134.967
  C     -138.738     101.016     135.733
  O     -137.745     101.590     134.899
  O     -136.286     103.445     134.090
  O     -138.761     103.949     134.436
  H     -136.515     103.488     133.143
  H     -138.545      99.947     135.838
  H     -139.725     101.159     135.279
  H     -138.727     101.480     136.726
  H     -138.024     107.585     131.441
  H     -137.858     108.989     132.468
  H     -139.427     108.546     131.841

 3  4  5  6  7  8  9  10  11  12  23  26  30  31 0
 6-311+G(2d,p)
 ****
 33  35  36  37  38 0
 6-311+G(2d,p)
 ****
 1  2  13  14  15  16  17  18  19  20  21  22  24  25 0
 3-21G
 ****
 27  28  29  32  34  39  40  41  42  43  44  45  46  47  48  49 0
 3-21G
 ****


