%nproc=1
%NoSave
%Mem=1900MB
#P OB98/GEN NMR

erre ene a

0 1
  C      -40.149       6.281     -53.076
  O      -40.570       5.119     -52.391
  H      -40.603       6.288     -54.071
  H      -39.060       6.283     -53.187
  H      -40.467       7.175     -52.534
  P      -39.922       4.873     -50.942
  C      -37.438       5.399     -50.339
  O      -38.346       4.792     -51.245
  C      -36.303       6.061     -51.113
  O      -36.821       6.807     -52.236
  C      -35.494       7.063     -50.297
  O      -34.555       6.443     -49.435
  C      -34.815       7.837     -51.412
  O      -33.735       7.055     -51.953
  C      -35.970       7.969     -52.431
  N      -36.741       9.202     -52.269
  C      -36.319      10.309     -53.015
  O      -35.341      10.229     -53.756
  N      -36.999      11.496     -52.880
  C      -38.016      11.572     -52.080
  N      -38.643      12.775     -51.974
  C      -38.504      10.427     -51.288
  C      -37.828       9.290     -51.428
  O      -40.292       3.350     -50.617
  O      -40.310       5.842     -49.877
  H      -34.138       6.308     -52.432
  H      -39.829       3.061     -49.794
  H      -39.350      10.542     -50.626
  H      -38.128       8.406     -50.875
  H      -35.592       7.926     -53.459
  H      -34.391       8.785     -51.078
  H      -36.143       7.748     -49.740
  H      -35.662       5.266     -51.517
  H      -38.248      13.556     -52.481
  H      -37.042       4.623     -49.676
  H      -39.321      12.974     -51.250
  H      -37.956       6.152     -49.738
  P      -34.218       7.179     -48.048
  C      -32.885       9.292     -47.336
  O      -33.345       8.478     -48.405
  O      -33.155       6.198     -47.368
  O      -35.399       7.428     -47.162
  H      -33.296       6.137     -46.405
  H      -32.322      10.113     -47.729
  H      -32.263       8.711     -46.688
  H      -33.723       9.666     -46.786

 6  7  8  9  10  11  12  13  14  15  16  26  30  31  32  33  35 0
 6-311+G(2d,p)
 ****
 37  38 0
 6-311+G(2d,p)
 ****
 1  2  3  4  5  17  18  19  20  21  22  23  24  25 0
 3-21G
 ****
 27  28  29  34  36  39  40  41  42  43  44  45  46 0
 3-21G
 ****


