%nproc=1
%NoSave
%Mem=1900MB
#P OB98/GEN NMR

erre ene a

0 1
  C       -7.789     127.728     119.082
  O       -6.406     127.391     118.937
  P       -5.356     128.219     119.824
  C       -4.701     130.233     118.332
  O       -5.477     129.772     119.430
  C       -4.527     131.756     118.372
  O       -3.854     132.171     119.595
  C       -3.704     132.311     117.205
  O       -4.226     133.609     116.883
  C       -2.323     132.478     117.808
  O       -1.524     133.381     117.048
  C       -2.692     132.937     119.217
  N        2.052     134.350     120.462
  C        1.230     134.728     119.459
  N       -0.017     134.284     119.181
  C       -0.410     133.384     120.102
  C        0.320     132.895     121.170
  C        1.616     133.415     121.337
  N        2.464     133.012     122.342
  N       -0.407     131.947     121.861
  C       -1.554     131.864     121.213
  N       -1.613     132.737     120.163
  O       -3.941     127.783     119.217
  O       -5.438     127.925     121.285
  H       -0.644     133.441     117.473
  H       -3.476     127.198     119.843
  H        1.625     135.482     118.784
  H       -2.363     131.189     121.458
  H       -2.958     134.003     119.251
  H       -1.810     131.505     117.835
  H       -3.700     131.682     116.308
  H       -5.522     132.220     118.373
  H       -5.181     129.953     117.390
  H        3.389     133.414     122.376
  H        2.169     132.283     122.974
  H       -3.734     129.724     118.338
  P       -4.400     133.944     115.326
  C       -2.231     135.357     115.169
  O       -2.928     134.198     114.753
  O       -5.066     135.401     115.329
  O       -5.227     132.952     114.578
  H       -5.573     135.539     114.511
  H       -1.184     135.098     115.337
  H       -2.640     135.780     116.089
  H       -2.287     136.108     114.376
  H       -8.377     127.106     118.440
  H       -7.936     128.754     118.817
  H       -8.089     127.576     120.098

 3  4  5  6  7  8  9  10  11  12  22  25  29  30  31  32 0
 6-311+G(2d,p)
 ****
 33  36  37 0
 6-311+G(2d,p)
 ****
 1  2  13  14  15  16  17  18  19  20  21  23  24  26 0
 3-21G
 ****
 27  28  34  35  38  39  40  41  42  43  44  45  46  47  48 0
 3-21G
 ****


