%nproc=1
%NoSave
%Mem=1900MB
#P OB98/GEN NMR

erre ene a

0 1
  C       23.455    -283.881       1.924
  O       23.927    -284.962       1.127
  P       23.313    -286.436       1.285
  C       22.583    -286.788      -1.161
  O       22.155    -286.532       0.182
  C       21.458    -286.444      -2.136
  O       21.302    -285.000      -2.168
  C       21.702    -286.849      -3.597
  O       21.367    -288.199      -3.899
  C       20.729    -285.915      -4.310
  O       19.387    -286.433      -4.209
  C       20.861    -284.629      -3.497
  N       21.430    -280.569      -6.576
  C       20.327    -281.258      -6.168
  N       20.265    -282.334      -5.358
  C       21.488    -282.673      -4.928
  C       22.698    -282.073      -5.259
  C       22.637    -280.970      -6.126
  N       23.758    -280.259      -6.520
  N       23.754    -282.728      -4.630
  C       23.185    -283.685      -3.935
  N       21.822    -283.695      -4.078
  O       22.915    -286.794       2.681
  O       24.451    -287.399       0.694
  H       18.793    -285.754      -4.595
  H       24.292    -288.320       0.987
  H       19.376    -280.888      -6.550
  H       23.713    -284.396      -3.317
  H       19.903    -284.098      -3.388
  H       20.948    -285.811      -5.381
  H       22.727    -286.613      -3.912
  H       20.523    -286.882      -1.760
  H       22.826    -287.853      -1.243
  H       23.606    -279.407      -7.030
  H       24.631    -280.455      -6.052
  H       23.490    -286.209      -1.378
  P       22.530    -289.117      -4.513
  C       21.711    -291.132      -3.045
  O       22.778    -290.287      -3.446
  O       23.754    -288.371      -4.952
  O       21.774    -289.871      -5.719
  H       21.092    -290.499      -5.447
  H       22.123    -291.950      -2.447
  H       21.197    -291.562      -3.925
  H       20.998    -290.565      -2.439
  H       23.989    -282.990       1.668
  H       23.611    -284.106       2.958
  H       22.410    -283.735       1.745

 3  4  5  6  7  8  9  10  11  12  22  25  29  30  31  32 0
 6-311+G(2d,p)
 ****
 33  36  37 0
 6-311+G(2d,p)
 ****
 1  2  13  14  15  16  17  18  19  20  21  23  24  26 0
 3-21G
 ****
 27  28  34  35  38  39  40  41  42  43  44  45  46  47  48 0
 3-21G
 ****


