%nproc=1
%NoSave
%Mem=1900MB
#P OB98/GEN NMR

erre ene a

0 1
  C      109.163    -102.661      22.060
  O      110.412    -102.349      22.641
  H      109.328    -103.024      21.043
  H      108.549    -101.758      22.012
  H      108.645    -103.435      22.633
  P      110.458    -102.178      24.235
  C      110.778     -99.615      24.476
  O      111.381    -100.898      24.533
  C      111.759     -98.543      24.955
  O      112.788     -98.365      23.934
  C      111.114     -97.169      25.210
  O      111.754     -96.561      26.340
  C      111.494     -96.383      23.970
  O      111.475     -94.979      24.192
  C      112.882     -96.950      23.691
  N      115.917     -93.989      21.005
  C      115.838     -94.194      22.368
  N      116.652     -93.450      23.151
  N      115.024     -95.052      22.923
  C      114.280     -95.745      22.026
  C      114.261     -95.635      20.657
  C      115.155     -94.666      20.055
  O      115.257     -94.425      18.858
  N      113.320     -96.470      20.111
  C      112.758     -97.067      21.149
  N      113.307     -96.658      22.333
  O      111.368    -103.414      24.692
  O      109.132    -102.181      24.917
  H      111.556     -94.530      23.325
  H      110.801    -104.168      24.941
  H      116.550     -93.303      20.630
  H      111.948     -97.779      21.098
  H      113.648     -96.537      24.360
  H      110.801     -96.615      23.151
  H      117.326     -92.790      22.796
  H      110.032     -97.210      25.376
  H      116.632     -93.618      24.149
  H      112.262     -98.906      25.858
  H      109.895     -99.602      25.123
  H      110.462     -99.410      23.448
  P      110.845     -95.722      27.360
  C      112.375     -93.656      27.771
  O      111.805     -94.845      28.300
  O      110.287     -96.846      28.353
  O      109.734     -94.971      26.703
  H      109.383     -96.614      28.640
  H      112.985     -93.190      28.517
  H      111.594     -92.985      27.479
  H      112.975     -93.897      26.919

 6  7  8  9  10  11  12  13  14  15  26  29  33  34 0
 6-311+G(2d,p)
 ****
 36  38  39  40  41 0
 6-311+G(2d,p)
 ****
 1  2  3  4  5  16  17  18  19  20  21  22  23  24  25 0
 3-21G
 ****
 27  28  30  31  32  35  37  42  43  44  45  46  47 0
 3-21G
 ****
 48  49 0
 3-21G
 ****


