%nproc=1
%NoSave
%Mem=1900MB
#P OB98/GEN NMR

erre ene a

0 1
  C     1005.757      16.585    -451.019
  O     1005.286      16.902    -449.693
  P     1003.992      16.217    -449.050
  C     1002.267      18.134    -449.185
  O     1002.666      16.864    -449.693
  C     1000.839      18.489    -449.598
  O      999.896      17.550    -449.056
  C     1000.344      19.857    -449.147
  O     1000.919      20.889    -449.945
  C      998.843      19.687    -449.301
  O      998.426      19.913    -450.662
  C      998.635      18.224    -448.894
  N      998.131      18.082    -447.531
  C      996.743      18.093    -447.370
  O      996.009      18.265    -448.347
  N      996.217      17.922    -446.109
  C      997.028      17.838    -445.089
  N      996.450      17.667    -443.879
  C      998.493      17.913    -445.208
  C      998.973      18.035    -446.445
  O     1004.004      16.207    -447.557
  O     1003.977      14.723    -449.622
  H      997.586      19.404    -450.766
  H     1003.581      14.129    -448.955
  H      999.112      17.868    -444.328
  H     1000.045      18.092    -446.609
  H      997.933      17.725    -449.582
  H      998.287      20.403    -448.680
  H     1000.601      20.001    -448.089
  H     1000.795      18.406    -450.709
  H      995.436      17.614    -443.829
  H     1002.950      18.894    -449.570
  H      996.972      17.576    -443.011
  H     1002.348      18.120    -448.087
  P     1002.053      21.843    -449.313
  C     1000.424      23.794    -448.974
  O     1001.325      22.886    -448.361
  O     1003.009      22.425    -450.297
  O     1002.817      20.874    -448.280
  H     1003.745      21.149    -448.232
  H      999.719      24.146    -448.216
  H      999.861      23.290    -449.774
  H     1000.985      24.627    -449.378
  H     1006.632      17.162    -451.234
  H     1004.994      16.815    -451.733
  H     1005.995      15.543    -451.074

 3  4  5  6  7  8  9  10  11  12  13  23  27  28  29  30  32 0
 6-311+G(2d,p)
 ****
 34  35 0
 6-311+G(2d,p)
 ****
 1  2  14  15  16  17  18  19  20  21  22  24  25  26 0
 3-21G
 ****
 31  33  36  37  38  39  40  41  42  43  44  45  46 0
 3-21G
 ****


