%nproc=1
%NoSave
%Mem=1900MB
#P OB98/GEN NMR

erre ene a

0 1
  C      193.043     563.428     264.238
  O      192.454     562.678     263.195
  H      192.886     564.490     264.035
  H      194.117     563.228     264.279
  H      192.576     563.179     265.196
  P      192.404     561.082     263.393
  C      193.673     559.168     262.115
  O      193.660     560.511     262.570
  C      194.962     558.879     261.347
  O      194.980     559.680     260.142
  C      196.240     559.191     262.134
  O      197.221     558.206     261.816
  C      196.664     560.544     261.598
  O      198.064     560.773     261.783
  C      196.194     560.459     260.141
  N      195.984     561.779     259.545
  C      197.016     562.282     258.751
  O      198.054     561.630     258.594
  N      196.875     563.525     258.185
  C      195.823     564.237     258.448
  N      195.750     565.464     257.879
  C      194.733     563.768     259.324
  C      194.870     562.539     259.825
  O      191.143     560.682     262.491
  O      192.316     560.642     264.816
  H      198.249     560.752     262.748
  H      191.100     561.161     261.645
  H      193.882     564.401     259.530
  H      194.110     562.115     260.476
  H      196.931     559.921     259.529
  H      196.122     561.346     262.124
  H      196.082     559.218     263.215
  H      194.946     557.827     261.022
  H      196.529     565.762     257.301
  H      192.811     558.978     261.469
  H      195.005     566.124     258.056
  H      193.595     558.513     262.990
  P      197.502     557.014     262.854
  C      199.046     556.547     264.869
  O      198.555     557.524     263.958
  O      197.815     555.682     262.246
  O      196.135     556.941     263.696
  H      195.940     556.002     263.871
  H      199.733     557.006     265.548
  H      199.545     555.772     264.326
  H      198.228     556.128     265.418

 6  7  8  9  10  11  12  13  14  15  16  26  30  31  32  33  35 0
 6-311+G(2d,p)
 ****
 37  38 0
 6-311+G(2d,p)
 ****
 1  2  3  4  5  17  18  19  20  21  22  23  24  25 0
 3-21G
 ****
 27  28  29  34  36  39  40  41  42  43  44  45  46 0
 3-21G
 ****


