%nproc=1
%NoSave
%Mem=1900MB
#P OB98/GEN NMR

erre ene a

0 1
  C      172.602      10.702      70.867
  O      171.726      10.428      69.792
  H      173.572      11.037      70.491
  H      172.166      11.495      71.480
  H      172.730       9.808      71.484
  P      172.238       9.359      68.712
  C      174.379       9.266      67.254
  O      173.394      10.085      67.867
  C      175.586      10.106      66.856
  O      176.099      10.818      68.000
  C      176.768       9.308      66.317
  O      176.579       8.927      64.961
  C      177.887      10.330      66.460
  O      177.840      11.256      65.359
  C      177.513      11.049      67.766
  N      181.962      11.325      70.313
  C      181.535      11.922      69.177
  N      180.348      11.794      68.553
  C      179.543      10.956      69.227
  C      179.838      10.277      70.398
  C      181.116      10.481      70.944
  N      181.546       9.856      72.094
  N      178.762       9.520      70.807
  C      177.830       9.736      69.900
  N      178.258      10.592      68.921
  O      171.023       9.267      67.670
  O      172.591       8.016      69.259
  H      178.457      11.980      65.577
  H      170.951       8.349      67.349
  H      182.246      12.597      68.705
  H      176.839       9.300      69.915
  H      177.648      12.134      67.680
  H      178.882       9.881      66.469
  H      176.986       8.442      66.952
  H      175.252      10.850      66.120
  H      173.958       8.797      66.360
  H      182.384      10.188      72.540
  H      180.901       9.230      72.565
  H      174.676       8.483      67.960
  P      177.275       7.565      64.471
  C      179.757       6.845      64.705
  O      178.844       7.890      64.388
  O      176.838       7.468      62.935
  O      176.891       6.346      65.237
  H      176.851       6.535      62.644
  H      180.760       7.205      64.607
  H      179.606       6.024      64.036
  H      179.592       6.520      65.711

 6  7  8  9  10  11  12  13  14  15  25  28  32  33  34  35 0
 6-311+G(2d,p)
 ****
 36  39  40 0
 6-311+G(2d,p)
 ****
 1  2  3  4  5  16  17  18  19  20  21  22  23  24 0
 3-21G
 ****
 26  27  29  30  31  37  38  41  42  43  44  45  46  47  48 0
 3-21G
 ****


