%nproc=1
%NoSave
%Mem=1900MB
#P OB98/GEN NMR

erre ene a

0 1
  C      -17.077     293.198     243.167
  O      -18.151     293.675     242.383
  H      -17.474     292.803     244.107
  H      -16.385     294.019     243.394
  H      -16.547     292.399     242.642
  P      -17.784     294.262     240.936
  C      -19.020     296.410     241.739
  O      -18.789     295.487     240.679
  C      -20.101     297.404     241.334
  O      -19.636     298.196     240.221
  C      -21.402     296.760     240.858
  O      -22.207     296.326     241.943
  C      -22.022     297.898     240.060
  O      -22.723     298.817     240.909
  C      -20.792     298.585     239.447
  N      -22.885     298.788     234.803
  C      -23.279     299.292     235.992
  N      -22.648     299.209     237.184
  C      -21.495     298.529     237.067
  C      -20.972     297.950     235.919
  C      -21.716     298.103     234.738
  N      -21.337     297.562     233.533
  N      -19.789     297.297     236.203
  C      -19.599     297.480     237.499
  N      -20.602     298.226     238.057
  O      -18.310     293.119     239.941
  O      -16.340     294.568     240.719
  H      -23.203     299.430     240.319
  H      -17.576     292.518     239.715
  H      -24.226     299.831     235.988
  H      -18.760     297.093     238.069
  H      -20.862     299.676     239.496
  H      -22.735     297.524     239.324
  H      -21.183     295.925     240.176
  H      -20.287     298.080     242.179
  H      -18.088     296.951     241.952
  H      -19.324     295.851     242.633
  H      -21.933     297.688     232.731
  H      -20.523     296.961     233.502
  P      -23.135     295.034     241.734
  C      -25.297     296.355     242.321
  O      -24.465     295.249     242.613
  O      -22.344     293.886     242.516
  O      -23.386     294.670     240.308
  H      -21.838     293.327     241.892
  H      -26.133     296.358     242.988
  H      -25.646     296.282     241.312
  H      -24.741     297.261     242.442

 6  7  8  9  10  11  12  13  14  15  25  28  32  33  34  35 0
 6-311+G(2d,p)
 ****
 36  37  40 0
 6-311+G(2d,p)
 ****
 1  2  3  4  5  16  17  18  19  20  21  22  23  24 0
 3-21G
 ****
 26  27  29  30  31  38  39 41  42  43  44  45  46  47  48 0
 3-21G
 ****


