%nproc=1
%NoSave
%Mem=1900MB
#P OB98/GEN NMR

erre ene a

0 1
  C      -43.957    -104.024     104.948
  O      -43.145    -104.443     103.848
  P      -41.673    -103.807     103.746
  C      -42.503    -102.185     101.903
  O      -41.806    -102.328     103.133
  C      -42.880    -100.723     101.639
  O      -43.923    -100.282     102.555
  C      -41.710     -99.747     101.795
  O      -41.895     -98.686     100.850
  C      -41.910     -99.194     103.193
  O      -41.213     -97.964     103.376
  C      -43.434     -99.106     103.235
  N      -46.270     -96.381     106.492
  C      -45.942     -96.186     105.198
  N      -45.160     -96.953     104.402
  C      -44.736     -98.039     105.069
  C      -44.980     -98.369     106.394
  C      -45.787     -97.480     107.122
  N      -46.100     -97.664     108.450
  N      -44.331     -99.543     106.731
  C      -43.705     -99.908     105.630
  N      -43.944     -99.048     104.592
  O      -40.994    -104.646     102.564
  O      -40.885    -103.906     105.010
  H      -41.481     -97.352     102.656
  H      -40.324    -105.253     102.931
  H      -46.358     -95.295     104.736
  H      -43.067    -100.772     105.531
  H      -43.816     -98.222     102.707
  H      -41.540     -99.913     103.935
  H      -40.721    -100.195     101.659
  H      -43.286    -100.649     100.622
  H      -43.413    -102.792     101.917
  H      -46.661     -96.966     108.909
  H      -45.708     -98.452     108.942
  H      -41.885    -102.589     101.092
  P      -41.473     -98.996      99.334
  C      -39.170     -97.837      99.609
  O      -39.872     -99.027      99.314
  O      -41.839     -97.644      98.556
  O      -42.155    -100.186      98.739
  H      -42.007     -97.833      97.614
  H      -38.302     -98.082     100.229
  H      -39.789     -97.111     100.144
  H      -38.821     -97.387      98.676
  H      -44.905    -104.518     104.900
  H      -44.103    -102.965     104.900
  H      -43.470    -104.276     105.867

 3  4  5  6  7  8  9  10  11  12  22  25  29  30  31  32 0
 6-311+G(2d,p)
 ****
 33  36  37 0
 6-311+G(2d,p)
 ****
 1  2  13  14  15  16  17  18  19  20  21  23  24  26 0
 3-21G
 ****
 27  28  34  35  38  39  40  41  42  43  44  45  46  47  48 0
 3-21G
 ****


