%nproc=1
%NoSave
%Mem=1900MB
#P OB98/GEN NMR

erre ene a

0 1
  C       12.286     -46.893     238.990
  O       13.718     -46.859     239.046
  P       14.558     -47.162     240.381
  C       15.646     -44.813     240.406
  O       15.859     -46.220     240.377
  C       16.876     -44.066     239.882
  O       16.923     -44.131     238.436
  C       16.912     -42.576     240.188
  O       17.208     -42.311     241.547
  C       17.979     -42.095     239.206
  O       19.299     -42.272     239.741
  C       17.768     -43.038     238.005
  N       17.202     -42.365     236.848
  C       18.092     -42.025     235.822
  O       19.300     -42.224     235.955
  N       17.587     -41.457     234.680
  C       16.329     -41.155     234.610
  N       15.883     -40.608     233.445
  C       15.384     -41.370     235.722
  C       15.882     -41.976     236.797
  O       14.867     -48.610     240.586
  O       13.670     -46.586     241.581
  H       13.876     -47.072     242.401
  H       19.914     -41.826     239.126
  H       14.351     -41.065     235.638
  H       15.254     -42.186     237.657
  H       18.718     -43.505     237.721
  H       17.868     -41.033     238.965
  H       15.945     -42.128     239.923
  H       17.772     -44.561     240.283
  H       16.556     -40.483     232.699
  H       15.467     -44.511     241.444
  H       14.918     -40.359     233.279
  H       14.758     -44.570     239.815
  P       16.255     -41.271     242.309
  C       18.000     -39.625     243.302
  O       17.077     -40.670     243.546
  O       15.152     -42.206     243.001
  O       15.617     -40.250     241.423
  H       14.279     -41.776     242.951
  H       18.094     -39.022     244.209
  H       17.673     -38.980     242.479
  H       18.975     -40.055     243.059
  H       11.962     -46.658     237.998
  H       11.885     -46.176     239.675
  H       11.942     -47.871     239.255

 3  4  5  6  7  8  9  10  11  12  13  24  27  28  29  30  32 0
 6-311+G(2d,p)
 ****
 34  35 0
 6-311+G(2d,p)
 ****
 1  2  14  15  16  17  18  19  20  21  22  23  25  26 0
 3-21G
 ****
 31  33  36  37  38  39  40  41  42  43  44  45  46 0
 3-21G
 ****


