%nproc=1
%NoSave
%Mem=1900MB
#P OB98/GEN NMR

erre ene a

0 1
  C      368.396     121.783     248.694
  O      367.182     121.268     248.201
  H      369.212     121.402     248.076
  H      368.546     121.446     249.725
  H      368.412     122.875     248.660
  P      365.813     122.000     248.601
  C      365.623     123.127     246.287
  O      364.987     122.294     247.257
  C      364.831     123.156     244.974
  O      364.853     121.843     244.366
  C      363.358     123.525     245.182
  O      363.101     124.923     245.184
  C      362.695     122.850     243.984
  O      362.688     123.706     242.835
  C      363.583     121.624     243.734
  N      359.737     118.265     243.394
  C      359.855     119.521     242.814
  N      358.788     119.937     242.092
  N      360.895     120.284     242.957
  C      361.837     119.782     243.794
  C      361.827     118.564     244.437
  C      360.696     117.684     244.214
  O      360.555     116.567     244.692
  N      362.929     118.405     245.238
  C      363.567     119.560     245.140
  N      362.981     120.391     244.215
  O      366.295     123.466     249.041
  O      365.035     121.350     249.707
  H      362.518     123.153     242.046
  H      365.698     123.814     249.728
  H      358.918     117.712     243.228
  H      364.471     119.825     245.678
  H      363.776     121.483     242.662
  H      361.653     122.607     244.205
  H      357.924     119.426     242.019
  H      362.973     123.070     246.093
  H      358.754     120.915     241.810
  H      365.328     123.843     244.274
  H      366.611     122.706     246.117
  H      365.746     124.134     246.680
  P      361.724     125.501     245.754
  C      362.794     126.483     247.944
  O      362.060     126.695     246.756
  O      361.222     124.338     246.723
  O      360.697     125.859     244.728
  H      360.547     123.777     246.277
  H      362.905     127.411     248.465
  H      363.760     126.092     247.701
  H      362.273     125.785     248.566

 6  7  8  9  10  11  12  13  14  15  26  29  33  34 0
 6-311+G(2d,p)
 ****
 36  38  39  40  41 0
 6-311+G(2d,p)
 ****
 1  2  3  4  5  16  17  18  19  20  21  22  23  24  25 0
 3-21G
 ****
 27  28  30  31  32  35  37  42  43  44  45  46  47 0
 3-21G
 ****
 48  49 0
 3-21G
 ****


