%nproc=1
%NoSave
%Mem=1900MB
#P OB98/GEN NMR

erre ene a

0 1
  C     -172.211      22.831    -576.865
  O     -173.084      22.361    -575.862
  H     -171.455      23.471    -576.398
  H     -172.759      23.425    -577.602
  H     -171.703      22.001    -577.363
  P     -174.188      21.264    -576.251
  C     -176.427      22.549    -576.170
  O     -175.377      22.045    -576.994
  C     -176.082      23.957    -575.691
  O     -175.608      24.758    -576.804
  C     -177.271      24.720    -575.125
  O     -177.606      24.271    -573.826
  C     -176.754      26.151    -575.198
  O     -175.911      26.456    -574.082
  C     -175.938      26.128    -576.512
  N     -176.674      26.744    -577.619
  C     -176.774      28.131    -577.596
  O     -176.280      28.833    -576.715
  N     -177.527      28.688    -578.599
  C     -178.271      28.000    -579.513
  O     -179.122      28.528    -580.231
  C     -178.077      26.540    -579.528
  C     -177.302      25.987    -578.590
  O     -174.616      20.357    -575.148
  O     -173.500      20.447    -577.447
  H     -173.161      19.600    -577.103
  H     -176.396      26.158    -573.291
  H     -177.641      29.693    -578.565
  H     -178.600      25.963    -580.288
  H     -177.169      24.910    -578.560
  H     -174.990      26.668    -576.383
  H     -177.572      26.874    -575.204
  H     -178.133      24.621    -575.797
  H     -175.274      23.877    -574.951
  H     -176.537      21.886    -575.301
  H     -177.362      22.545    -576.743
  P     -179.145      24.200    -573.362
  C     -179.711      26.193    -571.834
  O     -179.673      25.704    -573.175
  O     -179.415      23.288    -572.216
  O     -179.922      23.712    -574.675
  H     -180.496      22.962    -574.442
  H     -180.077      27.199    -571.831
  H     -178.725      26.171    -571.418
  H     -180.359      25.576    -571.248

 6  7  8  9  10  11  12  13  14  15  16  27  31  32  33  34  35 0
 6-311+G(2d,p)
 ****
 36  37 0
 6-311+G(2d,p)
 ****
 1  2  3  4  5  17  18  19  20  21  22  23  24  25 0
 3-21G
 ****
 26  28  29  30  38  39  40  41  42  43  44  45 0
 3-21G
 ****


