%nproc=1
%NoSave
%Mem=1900MB
#P OB98/GEN NMR

erre ene a

0 1
  C      449.159     728.466     193.583
  O      448.551     729.747     193.687
  P      449.379     731.015     193.138
  C      447.684     732.613     194.381
  O      449.019     732.229     194.140
  C      447.574     733.421     195.674
  O      447.732     732.542     196.812
  C      448.660     734.489     195.838
  O      448.390     735.634     195.040
  C      448.625     734.740     197.345
  O      447.518     735.598     197.686
  C      448.353     733.302     197.875
  N      449.549     732.642     198.396
  C      450.173     733.244     199.476
  O      449.755     734.283     200.009
  N      451.292     732.618     199.923
  C      451.893     731.521     199.385
  O      452.941     731.030     199.806
  C      451.208     730.944     198.222
  C      450.083     731.522     197.788
  O      448.564     731.339     191.802
  O      450.835     730.735     192.946
  H      447.639     731.049     191.865
  H      447.497     735.650     198.667
  H      451.755     733.028     200.736
  H      451.658     730.075     197.750
  H      449.561     731.123     196.923
  H      447.602     733.346     198.691
  H      449.532     735.191     197.727
  H      449.642     734.078     195.554
  H      446.576     733.867     195.714
  H      447.062     731.708     194.464
  H      447.317     733.192     193.532
  P      449.629     736.618     194.742
  C      447.735     738.424     194.631
  O      449.076     738.109     194.967
  O      449.781     736.472     193.149
  O      450.869     736.267     195.520
  H      448.912     736.472     192.705
  H      447.441     739.342     195.158
  H      447.055     737.615     194.919
  H      447.661     738.606     193.560
  H      448.500     727.725     193.984
  H      450.077     728.461     194.132
  H      449.358     728.248     192.554

 3  4  5  6  7  8  9  10  11  12  13  24  28  29  30  31  32 0
 6-311+G(2d,p)
 ****
 33  34 0
 6-311+G(2d,p)
 ****
 1  2  14  15  16  17  18  19  20  21  22  23  25  26  27 0
 3-21G
 ****
 35  36  37  38  39  40  41  42  43  44  45 0
 3-21G
 ****


