%nproc=1
%NoSave
%Mem=1900MB
#P OB98/GEN NMR

erre ene a

0 1
  C       36.248    -404.718    -576.701
  O       37.115    -404.301    -575.655
  P       36.622    -404.544    -574.136
  C       37.673    -406.899    -573.799
  O       37.689    -405.524    -573.446
  C       38.534    -407.728    -572.853
  O       39.940    -407.352    -573.048
  C       38.230    -407.531    -571.354
  O       38.442    -408.788    -570.717
  C       39.262    -406.509    -570.943
  O       39.464    -406.417    -569.533
  C       40.459    -407.012    -571.746
  N       45.526    -406.166    -571.576
  C       44.787    -407.309    -571.465
  N       43.449    -407.455    -571.528
  C       42.858    -406.255    -571.735
  C       43.459    -405.029    -571.847
  C       44.871    -405.006    -571.760
  N       45.616    -403.844    -571.861
  N       42.518    -404.028    -572.045
  C       41.358    -404.655    -572.022
  N       41.513    -405.991    -571.870
  O       35.332    -405.485    -574.317
  O       36.308    -403.302    -573.369
  H       40.061    -405.676    -569.329
  H       34.627    -405.247    -573.697
  H       45.346    -408.226    -571.299
  H       40.392    -404.174    -572.116
  H       40.912    -407.906    -571.313
  H       38.961    -405.520    -571.270
  H       37.190    -407.219    -571.180
  H       38.441    -408.791    -573.135
  H       38.062    -407.015    -574.818
  H       46.573    -403.901    -571.577
  H       45.104    -402.969    -571.796
  H       36.627    -407.261    -573.801
  P       37.416    -409.269    -569.582
  C       37.770    -411.513    -570.819
  O       37.573    -410.887    -569.559
  O       36.002    -409.115    -570.339
  O       37.498    -408.566    -568.267
  H       36.019    -409.537    -571.219
  H       37.970    -412.575    -570.647
  H       38.615    -411.066    -571.346
  H       36.852    -411.409    -571.431
  H       36.698    -404.497    -577.646
  H       35.316    -404.199    -576.620
  H       36.077    -405.772    -576.624

 3  4  5  6  7  8  9  10  11  12  22  25  29  30  31  32 0
 6-311+G(2d,p)
 ****
 33  36  37 0
 6-311+G(2d,p)
 ****
 1  2  13  14  15  16  17  18  19  20  21  23  24  26 0
 3-21G
 ****
 27  28  34  35  38  39  40  41  42  43  44  45  46  47  48 0
 3-21G
 ****


