%nproc=1
%NoSave
%Mem=1900MB
#P OB98/GEN NMR

erre ene a

0 1
  C      263.584    -236.296      25.689
  O      263.764    -235.790      26.996
  H      264.566    -236.417      25.223
  H      262.992    -235.605      25.085
  H      263.094    -237.274      25.725
  P      262.465    -235.415      27.854
  C      260.827    -236.807      29.291
  O      262.145    -236.683      28.780
  C      260.811    -237.665      30.562
  O      261.535    -238.901      30.304
  C      261.478    -236.991      31.773
  O      260.827    -237.485      32.950
  C      262.890    -237.531      31.675
  O      263.610    -237.316      32.863
  C      262.605    -238.980      31.271
  N      263.777    -239.655      30.736
  C      263.911    -241.008      31.056
  O      263.072    -241.565      31.764
  N      265.007    -241.689      30.593
  C      265.923    -241.059      29.928
  N      266.991    -241.789      29.509
  C      265.848    -239.615      29.618
  C      264.757    -238.982      30.045
  O      261.300    -234.898      27.077
  O      262.995    -234.326      28.902
  H      264.579    -237.350      32.698
  H      262.695    -233.438      28.634
  H      266.648    -239.132      29.077
  H      264.613    -237.921      29.868
  H      262.231    -239.558      32.127
  H      263.443    -237.022      30.880
  H      261.422    -235.900      31.740
  H      259.775    -237.944      30.786
  H      267.006    -242.772      29.752
  H      260.216    -237.279      28.515
  H      267.773    -241.402      29.003
  H      260.413    -235.818      29.511
  P      259.502    -236.816      33.558
  C      257.967    -235.927      31.685
  O      258.286    -237.024      32.537
  O      259.686    -235.401      34.005
  O      259.103    -237.743      34.803
  H      258.665    -237.196      35.481
  H      257.143    -236.192      31.056
  H      258.816    -235.687      31.079
  H      257.703    -235.078      32.280

 6  7  8  9  10  11  12  13  14  15  16  26  30  31  32  33  35 0
 6-311+G(2d,p)
 ****
 37  38 0
 6-311+G(2d,p)
 ****
 1  2  3  4  5  17  18  19  20  21  22  23  24  25 0
 3-21G
 ****
 27  28  29  34  36  39  40  41  42  43  44  45  46 0
 3-21G
 ****


