%nproc=1
%NoSave
%Mem=1900MB
#P OB98/GEN NMR

erre ene a

0 1
  C      904.009     179.211    -149.357
  O      903.145     179.141    -150.470
  H      904.805     178.470    -149.485
  H      903.463     178.979    -148.441
  H      904.465     180.199    -149.276
  P      901.988     180.238    -150.618
  C      903.278     181.414    -152.518
  O      902.660     181.552    -151.243
  C      902.744     182.488    -153.471
  O      903.067     183.807    -152.950
  C      903.357     182.435    -154.861
  O      902.815     181.376    -155.630
  C      903.034     183.829    -155.368
  O      901.688     183.900    -155.867
  C      903.183     184.687    -154.091
  N      904.459     185.409    -154.065
  C      904.390     186.790    -154.190
  O      903.319     187.401    -154.318
  N      905.584     187.441    -154.238
  C      906.806     186.854    -154.304
  O      907.839     187.469    -154.594
  C      906.834     185.398    -154.104
  C      905.672     184.749    -154.003
  O      901.158     180.468    -149.398
  O      901.094     179.683    -151.834
  H      900.293     179.262    -151.476
  H      901.114     183.621    -155.125
  H      905.542     188.454    -154.375
  H      907.797     184.899    -154.085
  H      905.659     183.674    -153.898
  H      902.367     185.418    -154.018
  H      903.707     184.138    -156.180
  H      904.446     182.330    -154.779
  H      901.647     182.399    -153.519
  H      903.022     180.425    -152.923
  H      904.356     181.496    -152.406
  P      903.777     180.224    -156.196
  C      903.102     178.344    -154.576
  O      904.130     179.233    -154.989
  O      904.949     180.700    -156.982
  O      902.802     179.327    -157.105
  H      903.227     179.204    -157.990
  H      903.457     177.738    -153.769
  H      902.822     177.717    -155.396
  H      902.252     178.907    -154.252

 6  7  8  9  10  11  12  13  14  15  16  27  31  32  33  34  35 0
 6-311+G(2d,p)
 ****
 36  37 0
 6-311+G(2d,p)
 ****
 1  2  3  4  5  17  18  19  20  21  22  23  24  25 0
 3-21G
 ****
 26  28  29  30  38  39  40  41  42  43  44  45 0
 3-21G
 ****


