%nproc=1
%NoSave
%Mem=1900MB
#P OB98/GEN NMR

erre ene a

0 1
  C      888.021     682.746     683.715
  O      889.330     682.265     683.969
  H      888.068     683.444     682.876
  H      887.627     683.266     684.588
  H      887.360     681.914     683.437
  P      889.553     681.298     685.229
  C      890.488     683.165     686.767
  O      890.748     681.941     686.086
  C      891.751     683.676     687.469
  O      892.024     682.811     688.615
  C      893.013     683.659     686.582
  O      893.863     684.728     687.033
  C      893.607     682.316     686.937
  O      894.941     682.210     686.489
  C      893.358     682.285     688.446
  N      893.487     680.943     689.007
  C      894.664     680.685     689.715
  O      895.525     681.555     689.829
  N      894.840     679.434     690.255
  C      893.956     678.510     690.046
  N      894.204     677.285     690.590
  C      892.731     678.726     689.256
  C      892.556     679.959     688.771
  O      889.718     679.852     684.918
  O      888.270     681.564     686.151
  H      895.491     682.945     686.858
  H      887.651     680.810     686.073
  H      892.029     677.917     689.087
  H      891.686     680.216     688.172
  H      894.060     682.951     688.973
  H      893.057     681.505     686.443
  H      892.787     683.776     685.520
  H      891.553     684.685     687.859
  H      895.063     677.180     691.116
  H      889.701     682.975     687.499
  H      893.596     676.487     690.478
  H      890.132     683.922     686.046
  P      893.582     686.275     686.680
  C      894.610     686.313     684.318
  O      894.696     686.783     685.654
  O      893.408     687.141     687.893
  O      892.239     686.264     685.801
  H      891.748     687.087     685.974
  H      895.411     686.727     683.742
  H      893.674     686.612     683.894
  H      894.680     685.245     684.310

 6  7  8  9  10  11  12  13  14  15  16  26  30  31  32  33  35 0
 6-311+G(2d,p)
 ****
 37  38 0
 6-311+G(2d,p)
 ****
 1  2  3  4  5  17  18  19  20  21  22  23  24  25 0
 3-21G
 ****
 27  28  29  34  36  39  40  41  42  43  44  45  46 0
 3-21G
 ****


