%nproc=1
%NoSave
%Mem=1900MB
#P OB98/GEN NMR

erre ene a

0 1
  C     -402.084    -321.380     428.414
  O     -401.205    -321.354     429.525
  H     -403.088    -321.623     428.768
  H     -401.762    -322.148     427.704
  H     -402.106    -320.402     427.924
  P     -399.730    -320.791     429.255
  C     -399.768    -319.692     431.639
  O     -399.066    -320.485     430.689
  C     -398.809    -319.214     432.730
  O     -398.369    -320.315     433.542
  C     -397.516    -318.607     432.203
  O     -397.704    -317.336     431.629
  C     -396.677    -318.584     433.476
  O     -396.944    -317.426     434.266
  C     -397.159    -319.872     434.206
  N     -396.131    -320.897     434.231
  C     -395.491    -321.076     435.468
  O     -395.840    -320.405     436.435
  N     -394.473    -321.983     435.553
  C     -394.099    -322.630     434.497
  N     -393.048    -323.492     434.641
  C     -394.738    -322.471     433.173
  C     -395.737    -321.589     433.115
  O     -400.021    -319.329     428.669
  O     -398.886    -321.647     428.373
  H     -397.920    -317.364     434.340
  H     -400.647    -318.811     429.200
  H     -394.392    -323.044     432.321
  H     -396.264    -321.414     432.182
  H     -397.436    -319.639     435.239
  H     -395.610    -318.582     433.252
  H     -397.044    -319.298     431.491
  H     -399.353    -318.501     433.368
  H     -392.613    -323.531     435.553
  H     -400.597    -320.260     432.083
  H     -392.623    -323.993     433.877
  H     -400.203    -318.841     431.106
  P     -396.819    -316.836     430.397
  C     -398.514    -315.490     428.985
  O     -397.435    -315.428     429.922
  O     -396.650    -317.830     429.294
  O     -395.450    -316.385     431.082
  H     -395.539    -315.680     431.744
  H     -398.837    -314.498     428.747
  H     -399.328    -316.037     429.414
  H     -398.185    -315.982     428.094

 6  7  8  9  10  11  12  13  14  15  16  26  30  31  32  33  35 0
 6-311+G(2d,p)
 ****
 37  38 0
 6-311+G(2d,p)
 ****
 1  2  3  4  5  17  18  19  20  21  22  23  24  25 0
 3-21G
 ****
 27  28  29  34  36  39  40  41  42  43  44  45  46 0
 3-21G
 ****


