%nproc=1
%NoSave
%Mem=1900MB
#P OB98/GEN NMR

erre ene a

0 1
  C     -898.530     684.587     207.305
  O     -897.180     684.988     207.127
  H     -898.790     683.887     206.503
  H     -899.190     685.457     207.245
  H     -898.650     684.084     208.266
  P     -896.620     686.066     208.180
  C     -896.280     688.642     208.168
  O     -896.660     687.490     207.430
  C     -895.520     689.614     207.275
  O     -894.130     689.255     207.164
  C     -896.060     689.723     205.852
  O     -897.160     690.619     205.785
  C     -894.840     690.238     205.104
  O     -894.690     691.661     205.280
  C     -893.700     689.476     205.796
  N     -892.470     687.236     201.431
  C     -892.860     688.528     201.688
  N     -892.970     689.359     200.622
  N     -893.140     688.995     202.884
  C     -893.040     688.049     203.848
  C     -892.670     686.727     203.737
  C     -892.320     686.253     202.411
  O     -891.890     685.134     202.130
  N     -892.670     686.083     204.943
  C     -893.090     687.017     205.788
  N     -893.330     688.219     205.176
  O     -895.050     685.737     208.255
  O     -897.240     686.032     209.531
  H     -893.960     691.981     204.733
  H     -894.750     685.860     209.174
  H     -892.250     686.945     200.503
  H     -893.220     686.866     206.862
  H     -892.770     690.076     205.841
  H     -894.930     690.070     204.033
  H     -893.060     689.000     199.680
  H     -896.330     688.730     205.464
  H     -893.340     690.285     200.802
  H     -895.550     690.611     207.762
  H     -895.630     688.331     208.988
  H     -897.160     689.113     208.582
  P     -898.190     690.451     204.560
  C     -898.120     691.124     202.059
  O     -897.380     690.720     203.195
  O     -899.110     691.767     204.710
  O     -899.020     689.206     204.598
  H     -900.000     691.507     205.066
  H     -897.456     691.265     201.232
  H     -898.625     692.043     202.271
  H     -898.839     690.370     201.815

 6  7  8  9  10  11  12  13  14  15  26  29  33  34 0
 6-311+G(2d,p)
 ****
 36  38  39  40  41 0
 6-311+G(2d,p)
 ****
 1  2  3  4  5  16  17  18  19  20  21  22  23  24  25 0
 3-21G
 ****
 27  28  30  31  32  35  37  42  43  44  45  46  47 0
 3-21G
 ****
 48  49 0
 3-21G
 ****


