%nproc=1
%NoSave
%Mem=1900MB
#P OB98/GEN NMR

erre ene a

0 1
  C      275.074    -217.611       5.366
  O      274.085    -218.135       4.462
  P      274.326    -218.010       2.879
  C      273.901    -220.555       2.493
  O      273.612    -219.223       2.104
  C      272.914    -221.550       1.852
  O      271.608    -221.430       2.480
  C      272.706    -221.354       0.344
  O      272.464    -222.651      -0.222
  C      271.441    -220.518       0.290
  O      270.788    -220.566      -0.969
  C      270.648    -221.155       1.437
  N      269.549    -220.331       1.942
  C      268.365    -220.306       1.212
  O      268.195    -220.882       0.140
  N      267.350    -219.550       1.750
  C      267.418    -218.806       2.889
  O      266.484    -218.128       3.302
  C      268.702    -218.847       3.603
  C      269.690    -219.594       3.105
  O      275.878    -218.395       2.749
  O      274.080    -216.658       2.296
  H      270.592    -221.502      -1.157
  H      276.326    -217.757       2.162
  H      266.479    -219.534       1.241
  H      268.795    -218.273       4.517
  H      270.645    -219.649       3.620
  H      270.251    -222.126       1.112
  H      271.690    -219.470       0.496
  H      273.561    -220.879      -0.150
  H      273.275    -222.564       2.063
  H      273.830    -220.639       3.581
  H      274.926    -220.800       2.192
  P      272.926    -222.925      -1.737
  C      274.102    -225.198      -1.171
  O      273.105    -224.508      -1.895
  O      274.442    -222.389      -1.674
  O      272.101    -222.235      -2.771
  H      274.915    -222.700      -0.885
  H      274.174    -224.826      -0.144
  H      275.068    -225.074      -1.668
  H      273.849    -226.257      -1.145
  H      274.758    -217.776       6.375
  H      275.191    -216.561       5.197
  H      276.008    -218.106       5.199

 3  4  5  6  7  8  9  10  11  12  13  23  28  29  30  31  32 0
 6-311+G(2d,p)
 ****
 33  34 0
 6-311+G(2d,p)
 ****
 1  2  14  15  16  17  18  19  20  21  22  24  25  26 0
 3-21G
 ****
 27  35  36  37  38  39  40  41  42  43  44  45 0
 3-21G
 ****


