%nproc=1
%NoSave
%Mem=1900MB
#P OB98/GEN NMR

erre ene a

0 1
  C      -35.621     -62.889     -56.450
  O      -35.716     -61.548     -56.896
  P      -34.357     -60.699     -56.974
  C      -34.516     -59.519     -54.661
  O      -33.872     -60.510     -55.458
  C      -33.494     -58.782     -53.802
  O      -32.604     -59.724     -53.175
  C      -32.600     -57.832     -54.580
  O      -33.291     -56.636     -54.884
  C      -31.440     -57.647     -53.611
  O      -31.713     -56.597     -52.670
  C      -31.372     -59.020     -52.901
  N      -30.214     -59.801     -53.302
  C      -28.983     -59.371     -52.791
  O      -28.929     -58.376     -52.066
  N      -27.847     -60.055     -53.147
  C      -27.935     -61.073     -53.945
  N      -26.777     -61.716     -54.260
  C      -29.208     -61.546     -54.522
  C      -30.298     -60.866     -54.166
  O      -34.862     -59.242     -57.392
  O      -33.336     -61.241     -57.920
  H      -30.842     -56.331     -52.310
  H      -34.159     -58.753     -57.862
  H      -29.226     -62.399     -55.183
  H      -31.275     -61.144     -54.544
  H      -31.331     -58.884     -51.813
  H      -30.515     -57.376     -54.129
  H      -32.242     -58.308     -55.501
  H      -34.034     -58.244     -53.012
  H      -25.918     -61.366     -53.855
  H      -35.246     -60.003     -54.006
  H      -26.741     -62.532     -54.855
  H      -35.045     -58.823     -55.320
  P      -33.170     -56.065     -56.375
  C      -31.211     -54.435     -56.086
  O      -31.619     -55.706     -56.554
  O      -33.836     -54.614     -56.236
  O      -33.796     -56.868     -57.465
  H      -33.911     -54.196     -57.113
  H      -30.121     -54.382     -56.123
  H      -31.537     -54.284     -55.054
  H      -31.624     -53.652     -56.727
  H      -36.594     -63.334     -56.447
  H      -35.217     -62.908     -55.459
  H      -34.980     -63.439     -57.107

 3  4  5  6  7  8  9  10  11  12  13  21  23  27  28  29  30  32 0
 6-311+G(2d,p)
 ****
 34  35 0
 6-311+G(2d,p)
 ****
 1  2  14  15  16  17  18  19  20  22  24  25  26 0
 3-21G
 ****
 31  33  36  37  38  39  40  41  42  43  44  45  46 0
 3-21G
 ****


