%nproc=1
%NoSave
%Mem=1900MB
#P OB98/GEN NMR

erre ene a

0 1
  C     -229.619      -4.549      33.791
  O     -229.850      -3.517      34.760
  P     -229.643      -1.997      34.285
  C     -228.634      -1.104      36.533
  O     -229.723      -1.115      35.621
  C     -229.154      -1.098      37.969
  O     -229.623      -2.416      38.348
  C     -228.104      -0.727      39.010
  O     -227.832       0.667      38.993
  C     -228.769      -1.232      40.282
  O     -229.747      -0.288      40.748
  C     -229.474      -2.517      39.784
  N     -228.773      -3.738      40.164
  C     -228.774      -4.039      41.525
  O     -229.303      -3.321      42.373
  N     -228.121      -5.189      41.882
  C     -227.460      -6.031      41.035
  O     -226.904      -7.056      41.410
  C     -227.451      -5.634      39.619
  C     -228.094      -4.524      39.251
  O     -231.027      -1.720      33.536
  O     -228.419      -1.811      33.450
  H     -231.783      -2.168      33.950
  H     -230.011      -0.583      41.642
  H     -228.122      -5.433      42.861
  H     -226.914      -6.266      38.922
  H     -228.099      -4.213      38.211
  H     -230.492      -2.569      40.192
  H     -228.052      -1.392      41.095
  H     -227.180      -1.288      38.824
  H     -230.004      -0.401      38.021
  H     -228.019      -0.215      36.369
  H     -228.003      -1.980      36.341
  P     -226.312       1.104      38.688
  C     -226.085       3.188      40.249
  O     -226.234       2.684      38.943
  O     -226.261       0.958      37.095
  O     -225.296       0.282      39.416
  H     -227.043       1.328      36.654
  H     -225.708       4.215      40.191
  H     -225.378       2.592      40.831
  H     -227.054       3.199      40.754
  H     -229.792      -5.505      34.240
  H     -228.607      -4.495      33.447
  H     -230.285      -4.417      32.964

 3  4  5  6  7  8  9  10  11  12  13  24  28  29  30  31  32 0
 6-311+G(2d,p)
 ****
 33  34 0
 6-311+G(2d,p)
 ****
 1  2  14  15  16  17  18  19  20  21  22  23  25  26  27 0
 3-21G
 ****
 35  36  37  38  39  40  41  42  43  44  45 0
 3-21G
 ****


