%nproc=1
%NoSave
%Mem=1900MB
#P OB98/GEN NMR

erre ene a

0 1
  C      -48.698     328.631     298.725
  O      -48.809     329.960     299.194
  H      -47.692     328.270     298.928
  H      -48.877     328.595     297.644
  H      -49.419     327.994     299.241
  P      -50.208     330.705     298.940
  C      -49.357     331.920     296.828
  O      -50.249     330.939     297.351
  C      -49.954     332.577     295.586
  O      -51.147     333.308     295.978
  C      -49.009     333.573     294.902
  O      -49.205     333.512     293.487
  C      -49.498     334.917     295.407
  O      -49.134     335.989     294.540
  C      -51.002     334.666     295.518
  N      -54.707     338.126     295.971
  C      -54.415     337.235     294.998
  N      -53.413     336.330     294.970
  C      -52.713     336.360     296.117
  C      -52.894     337.204     297.199
  C      -53.947     338.135     297.088
  N      -54.236     339.064     298.061
  N      -51.943     336.962     298.169
  C      -51.209     335.977     297.694
  N      -51.627     335.593     296.449
  O      -50.458     331.919     299.768
  O      -51.258     329.510     299.140
  H      -49.585     336.804     294.841
  H      -50.976     328.707     298.664
  H      -55.057     337.257     294.124
  H      -50.362     335.514     298.189
  H      -51.518     334.771     294.559
  H      -49.067     335.124     296.393
  H      -47.957     333.400     295.135
  H      -50.278     331.791     294.889
  H      -48.396     331.458     296.569
  H      -55.010     339.695     297.901
  H      -53.688     339.090     298.906
  H      -49.187     332.671     297.612
  P      -48.182     332.643     292.602
  C      -46.842     334.284     291.130
  O      -46.866     333.519     292.329
  O      -48.764     331.998     291.390
  O      -47.654     331.543     293.643
  H      -47.610     330.675     293.191
  H      -45.917     334.819     291.067
  H      -47.656     334.978     291.134
  H      -46.934     333.630     290.288

 6  7  8  9  10  11  12  13  14  15  25  28  32  33  34  35 0
 6-311+G(2d,p)
 ****
 36  39  40 0
 6-311+G(2d,p)
 ****
 1  2  3  4  5  16  17  18  19  20  21  22  23  24 0
 3-21G
 ****
 26  27  29  30  31  37  38  41  42  43  44  45  46  47 0
 3-21G
 ****
 48 0
 3-21G
 ****


