%nproc=1
%NoSave
%Mem=1900MB
#P OB98/GEN NMR

erre ene a

0 1
  C      -34.474     413.927     934.266
  O      -33.357     413.206     934.773
  P      -32.895     413.323     936.302
  C      -33.940     411.170     937.363
  O      -32.747     411.815     936.881
  C      -33.838     409.638     937.316
  O      -33.689     409.187     935.952
  C      -32.572     409.175     938.067
  O      -32.601     409.010     939.467
  C      -32.093     407.936     937.282
  O      -32.511     406.723     937.889
  C      -32.753     408.113     935.915
  N      -28.886     406.210     933.200
  C      -29.787     405.551     934.023
  N      -29.488     404.265     934.289
  N      -30.842     406.115     934.536
  C      -30.938     407.443     934.253
  C      -30.140     408.216     933.445
  C      -28.993     407.554     932.847
  O      -28.115     408.133     932.179
  N      -30.504     409.528     933.438
  C      -31.522     409.579     934.285
  N      -31.807     408.349     934.834
  O      -33.564     414.356     937.141
  O      -31.348     413.759     936.130
  H      -32.388     405.986     937.255
  H      -31.116     414.351     936.872
  H      -28.058     405.751     932.902
  H      -32.064     410.476     934.564
  H      -33.318     407.215     935.642
  H      -31.007     407.902     937.261
  H      -28.599     403.840     934.032
  H      -31.802     409.926     937.890
  H      -30.041     403.797     935.024
  H      -34.766     409.166     937.678
  H      -34.773     411.529     936.729
  H      -34.139     411.487     938.381
  P      -31.491     409.514     940.515
  C      -32.549     411.851     940.791
  O      -32.148     410.636     941.439
  O      -30.455     410.368     939.592
  O      -30.760     408.433     941.239
  H      -29.591     410.428     940.039
  H      -32.682     412.621     941.551
  H      -33.480     411.678     940.263
  H      -31.780     412.169     940.083
  H      -34.603     413.702     933.228
  H      -34.305     414.977     934.385
  H      -35.355     413.645     934.804

 3  4  5  6  7  8  9  10  11  12  23  26  30  31 0
 6-311+G(2d,p)
 ****
 33  35  36  37  38 0
 6-311+G(2d,p)
 ****
 1  2  13  14  15  16  17  18  19  20  21  22  24  25 0
 3-21G
 ****
 27  28  29  32  34  39  40  41  42  43  44  45  46  47  48  49 0
 3-21G
 ****


