%nproc=1
%NoSave
%Mem=1900MB
#P OB98/GEN NMR

erre ene a

0 1
  C     -229.694     417.036    -181.689
  O     -230.578     417.219    -180.600
  H     -229.363     415.996    -181.736
  H     -230.222     417.280    -182.617
  H     -228.830     417.699    -181.591
  P     -229.995     416.923    -179.136
  C     -230.901     419.172    -178.197
  O     -229.759     418.360    -178.461
  C     -230.738     420.519    -178.896
  O     -230.818     420.348    -180.330
  C     -231.811     421.539    -178.544
  O     -231.552     422.189    -177.309
  C     -231.679     422.501    -179.712
  O     -230.527     423.342    -179.520
  C     -231.447     421.537    -180.885
  N     -233.430     419.875    -185.299
  C     -232.169     420.191    -184.941
  N     -231.724     420.632    -183.746
  C     -232.735     420.736    -182.869
  C     -234.075     420.460    -183.093
  C     -234.416     419.999    -184.380
  N     -235.707     419.691    -184.754
  N     -234.823     420.719    -181.964
  C     -233.946     421.116    -181.064
  N     -232.675     421.152    -181.569
  O     -228.502     416.410    -179.421
  O     -230.780     415.962    -178.308
  H     -230.694     423.862    -178.710
  H     -228.172     415.902    -178.656
  H     -231.415     420.079    -185.719
  H     -234.180     421.386    -180.043
  H     -230.768     421.949    -181.638
  H     -232.543     423.159    -179.828
  H     -232.816     421.093    -178.557
  H     -229.738     420.907    -178.661
  H     -230.986     419.331    -177.119
  H     -235.866     419.553    -185.739
  H     -236.457     419.925    -184.123
  H     -231.797     418.657    -178.560
  P     -232.260     421.596    -175.998
  C     -230.149     420.719    -174.755
  O     -231.324     420.396    -175.496
  O     -233.544     420.847    -176.586
  O     -232.618     422.616    -174.965
  H     -234.257     420.800    -175.919
  H     -229.634     419.819    -174.493
  H     -230.422     421.245    -173.864
  H     -229.509     421.335    -175.351

 6  7  8  9  10  11  12  13  14  15  25  28  32  33  34  35 0
 6-311+G(2d,p)
 ****
 36  39  40 0
 6-311+G(2d,p)
 ****
 1  2  3  4  5  16  17  18  19  20  21  22  23  24 0
 3-21G
 ****
 26  27  29  30  31  37  38  41  42  43  44  45  46  47 0
 3-21G
 ****
 48 0
 3-21G
 ****


