%nproc=1
%NoSave
%Mem=1900MB
#P OB98/GEN NMR

erre ene a

0 1
  C      226.504      54.687     -31.702
  O      227.737      54.963     -31.070
  H      226.097      55.623     -32.095
  H      225.794      54.275     -30.981
  H      226.639      53.989     -32.532
  P      228.623      53.738     -30.538
  C      227.836      51.584     -29.357
  O      227.768      53.003     -29.400
  C      226.779      51.043     -28.398
  O      225.530      51.746     -28.583
  C      226.457      49.568     -28.604
  O      227.471      48.743     -28.064
  C      225.113      49.468     -27.901
  O      225.283      49.350     -26.481
  C      224.465      50.820     -28.270
  N      223.516      50.713     -29.377
  C      222.386      51.522     -29.307
  O      222.152      52.274     -28.361
  N      221.510      51.417     -30.355
  C      221.595      50.521     -31.381
  O      220.736      50.406     -32.249
  C      222.797      49.674     -31.392
  C      223.687      49.808     -30.407
  O      230.026      54.072     -30.157
  O      228.581      52.690     -31.750
  H      225.833      48.556     -26.334
  H      229.435      52.704     -32.220
  H      220.680      51.984     -30.315
  H      222.906      48.963     -32.197
  H      224.576      49.188     -30.394
  H      223.933      51.236     -27.405
  H      224.539      48.601     -28.229
  H      226.315      49.360     -29.670
  H      227.120      51.228     -27.370
  H      228.831      51.290     -29.006
  H      227.684      51.189     -30.368
  P      227.575      47.211     -28.513
  C      225.947      45.221     -28.518
  O      226.336      46.427     -27.865
  O      228.907      46.571     -28.301
  O      227.205      47.245     -30.070
  H      227.960      46.909     -30.589
  H      225.116      44.788     -28.001
  H      226.767      44.533     -28.515
  H      225.666      45.437     -29.528

 6  7  8  9  10  11  12  13  14  15  16  26  31  32  33  34  35 0
 6-311+G(2d,p)
 ****
 36  37 0
 6-311+G(2d,p)
 ****
 1  2  3  4  5  17  18  19  20  21  22  23  24  25 0
 3-21G
 ****
 27  28  29  30  38  39  40  41  42  43  44  45 0
 3-21G
 ****


