%nproc=1
%NoSave
%Mem=1900MB
#P OB98/GEN NMR

erre ene a

0 1
  C     -199.582    -482.512    1150.550
  O     -200.500    -481.459    1150.325
  H     -200.051    -483.229    1151.234
  H     -198.671    -482.131    1151.008
  H     -199.347    -483.022    1149.606
  P     -200.096    -480.372    1149.215
  C     -201.395    -479.022    1147.365
  O     -201.449    -479.909    1148.491
  C     -202.621    -479.241    1146.473
  O     -202.484    -480.458    1145.708
  C     -203.916    -479.418    1147.234
  O     -204.381    -478.219    1147.816
  C     -204.813    -479.962    1146.122
  O     -205.282    -478.889    1145.274
  C     -203.827    -480.875    1145.352
  N     -204.052    -482.305    1145.624
  C     -205.109    -482.896    1144.920
  O     -205.780    -482.248    1144.126
  N     -205.404    -484.215    1145.177
  C     -204.690    -484.880    1146.038
  N     -205.021    -486.189    1146.249
  C     -203.549    -484.305    1146.776
  C     -203.291    -483.017    1146.532
  O     -199.366    -481.261    1148.101
  O     -199.274    -479.218    1149.728
  H     -205.844    -478.310    1145.839
  H     -199.910    -482.012    1147.803
  H     -202.970    -484.901    1147.483
  H     -202.477    -482.511    1147.050
  H     -203.933    -480.742    1144.262
  H     -205.695    -480.458    1146.504
  H     -203.810    -480.210    1147.984
  H     -202.671    -478.404    1145.759
  H     -205.828    -486.553    1145.741
  H     -200.466    -479.162    1146.813
  H     -204.557    -486.808    1146.918
  H     -201.399    -477.996    1147.760
  P     -205.671    -478.222    1148.792
  C     -206.233    -477.117    1151.035
  O     -205.434    -477.065    1149.843
  O     -206.006    -479.566    1149.394
  O     -206.829    -477.636    1147.849
  H     -206.669    -476.743    1147.524
  H     -205.986    -476.289    1151.666
  H     -206.039    -478.032    1151.555
  H     -207.269    -477.069    1150.772

 6  7  8  9  10  11  12  13  14  15  16  26  30  31  32  33  35 0
 6-311+G(2d,p)
 ****
 37  38 0
 6-311+G(2d,p)
 ****
 1  2  3  4  5  17  18  19  20  21  22  23  24  25 0
 3-21G
 ****
 27  28  29  34  36  39  40  41  42  43  44  45  46 0
 3-21G
 ****


