%nproc=1
%NoSave
%Mem=1900MB
#P OB98/GEN NMR

erre ene a

0 1
  C     -604.906    -175.080     610.969
  O     -604.757    -175.464     609.617
  H     -605.693    -174.329     611.055
  H     -605.187    -175.958     611.555
  H     -603.967    -174.679     611.363
  P     -604.058    -174.419     608.620
  C     -601.836    -175.721     608.306
  O     -602.476    -174.573     608.840
  C     -601.284    -176.604     609.427
  O     -602.402    -177.074     610.250
  C     -600.506    -177.846     608.936
  O     -599.391    -178.058     609.802
  C     -601.502    -178.984     609.126
  O     -600.871    -180.247     609.296
  C     -602.253    -178.502     610.379
  N     -604.756    -182.267     612.687
  C     -603.584    -181.674     612.963
  N     -603.008    -180.639     612.309
  C     -603.813    -180.163     611.349
  C     -605.041    -180.670     610.955
  C     -605.517    -181.789     611.673
  N     -606.702    -182.449     611.364
  N     -605.538    -179.942     609.880
  C     -604.614    -179.051     609.619
  N     -603.549    -179.145     610.474
  O     -604.398    -173.013     609.310
  O     -604.519    -174.471     607.203
  H     -600.433    -180.493     608.453
  H     -605.261    -172.688     608.989
  H     -603.010    -182.093     613.784
  H     -604.642    -178.340     608.800
  H     -601.705    -178.704     611.304
  H     -602.169    -179.039     608.258
  H     -600.161    -177.773     607.891
  H     -600.644    -175.993     610.061
  H     -601.009    -175.404     607.657
  H     -606.888    -183.309     611.860
  H     -607.201    -182.161     610.537
  H     -602.557    -176.289     607.694
  P     -597.939    -177.675     609.234
  C     -596.823    -176.295     611.141
  O     -597.483    -176.274     609.891
  O     -598.235    -177.271     607.703
  O     -596.926    -178.767     609.333
  H     -597.469    -177.502     607.138
  H     -596.589    -175.294     611.437
  H     -595.920    -176.863     611.058
  H     -597.461    -176.744     611.874

 6  7  8  9  10  11  12  13  14  15  25  28  32  33  34  35 0
 6-311+G(2d,p)
 ****
 36  39  40 0
 6-311+G(2d,p)
 ****
 1  2  3  4  5  16  17  18  19  20  21  22  23  24 0
 3-21G
 ****
 26  27  29  30  31  37  38  41  42  43  44  45  46  47 0
 3-21G
 ****
 48 0
 3-21G
 ****


