%nproc=1
%NoSave
%Mem=1900MB
#P OB98/GEN NMR

erre ene a

0 1
  C      -39.853     105.576    -114.413
  O      -41.123     105.543    -115.035
  H      -39.911     105.022    -113.471
  H      -39.567     106.609    -114.191
  H      -39.096     105.110    -115.049
  P      -41.276     106.156    -116.513
  C      -40.651     108.488    -117.428
  O      -41.239     107.753    -116.362
  C      -41.206     109.915    -117.443
  O      -42.637     109.891    -117.643
  C      -40.981     110.674    -116.141
  O      -39.644     111.117    -116.030
  C      -42.012     111.785    -116.276
  O      -41.520     112.841    -117.115
  C      -43.186     111.039    -116.956
  N      -44.231     110.639    -116.011
  C      -44.997     111.668    -115.464
  O      -44.809     112.860    -115.715
  N      -45.976     111.277    -114.588
  C      -46.182     110.010    -114.127
  O      -47.017     109.725    -113.274
  C      -45.328     108.967    -114.719
  C      -44.406     109.326    -115.621
  O      -42.411     105.624    -117.319
  O      -39.866     105.832    -117.202
  H      -42.182     113.557    -117.068
  H      -39.976     105.092    -117.829
  H      -46.534     112.007    -114.173
  H      -45.471     107.947    -114.390
  H      -43.763     108.574    -116.065
  H      -43.642     111.675    -117.727
  H      -42.271     112.228    -115.315
  H      -41.253     110.042    -115.284
  H      -40.755     110.448    -118.294
  H      -40.897     107.993    -118.378
  H      -39.565     108.495    -117.301
  P      -39.016     111.407    -114.586
  C      -39.788     112.772    -112.543
  O      -39.774     112.681    -113.969
  O      -37.521     111.481    -114.542
  O      -39.547     110.195    -113.686
  H      -38.788     109.686    -113.340
  H      -40.317     113.654    -112.247
  H      -38.783     112.819    -112.179
  H      -40.275     111.911    -112.135

 6  7  8  9  10  11  12  13  14  15  16  26  31  32  33  34  35 0
 6-311+G(2d,p)
 ****
 36  37 0
 6-311+G(2d,p)
 ****
 1  2  3  4  5  17  18  19  20  21  22  23  24  25 0
 3-21G
 ****
 27  28  29  30  38  39  40  41  42  43  44  45 0
 3-21G
 ****


