%nproc=1
%NoSave
%Mem=1900MB
#P OB98/GEN NMR

erre ene a

0 1
  C     -250.173    -373.558    -101.436
  O     -249.444    -373.977    -102.592
  P     -249.908    -375.347    -103.287
  C     -248.475    -375.565    -105.433
  O     -248.654    -375.960    -104.081
  C     -247.356    -374.526    -105.570
  O     -246.082    -375.075    -105.129
  C     -247.154    -374.025    -107.002
  O     -246.750    -372.654    -106.932
  C     -245.983    -374.854    -107.490
  O     -245.349    -374.254    -108.617
  C     -245.146    -374.920    -106.214
  N     -240.484    -376.352    -107.720
  C     -241.153    -375.185    -107.839
  N     -242.406    -374.891    -107.430
  C     -242.955    -375.946    -106.802
  C     -242.399    -377.200    -106.613
  C     -241.099    -377.390    -107.107
  N     -240.424    -378.586    -107.011
  N     -243.290    -378.034    -105.967
  C     -244.364    -377.294    -105.777
  N     -244.198    -376.019    -106.234
  O     -250.886    -374.852    -104.452
  O     -250.599    -376.291    -102.359
  H     -245.979    -374.271    -109.368
  H     -251.811    -375.063    -104.223
  H     -240.614    -374.382    -108.335
  H     -245.284    -377.633    -105.320
  H     -244.570    -374.003    -106.044
  H     -246.328    -375.853    -107.784
  H     -248.033    -374.120    -107.649
  H     -247.593    -373.678    -104.915
  H     -249.405    -375.144    -105.826
  H     -239.505    -378.648    -107.418
  H     -240.889    -379.379    -106.598
  H     -248.269    -376.453    -106.041
  P     -247.581    -371.614    -107.825
  C     -247.853    -369.515    -106.327
  O     -247.124    -370.154    -107.357
  O     -249.076    -371.745    -107.267
  O     -247.508    -371.879    -109.294
  H     -249.715    -371.490    -107.956
  H     -247.152    -369.003    -105.665
  H     -248.441    -370.224    -105.736
  H     -248.526    -368.778    -106.770
  H     -249.766    -372.638    -101.072
  H     -250.097    -374.307    -100.676
  H     -251.201    -373.416    -101.695

 3  4  5  6  7  8  9  10  11  12  22  25  29  30  31  32 0
 6-311+G(2d,p)
 ****
 33  36  37 0
 6-311+G(2d,p)
 ****
 1  2  13  14  15  16  17  18  19  20  21  23  24  26 0
 3-21G
 ****
 27  28  34  35  38  39  40  41  42  43  44  45  46  47  48 0
 3-21G
 ****


