%nproc=1
%NoSave
%Mem=1900MB
#P OB98/GEN NMR

erre ene a

0 1
  C        0.693      15.078    -411.840
  O        0.922      14.642    -410.509
  P        1.042      15.703    -409.312
  C       -0.913      14.700    -407.973
  O       -0.427      15.841    -408.674
  C       -1.146      15.032    -406.504
  O        0.118      15.375    -405.892
  C       -2.095      16.208    -406.289
  O       -2.886      15.969    -405.118
  C       -1.171      17.387    -406.006
  O       -1.832      18.394    -405.225
  C       -0.001      16.689    -405.308
  N        4.191      18.520    -402.980
  C        3.139      17.822    -402.505
  N        2.046      17.389    -403.178
  C        2.141      17.696    -404.482
  C        3.160      18.402    -405.106
  C        4.225      18.825    -404.297
  N        5.312      19.521    -404.784
  N        2.892      18.548    -406.456
  C        1.746      17.932    -406.641
  N        1.255      17.391    -405.479
  O        1.679      16.998    -409.675
  O        1.860      14.934    -408.172
  H       -1.195      19.127    -405.101
  H        2.474      15.546    -407.726
  H        3.172      17.583    -401.447
  H        1.225      17.856    -407.587
  H       -0.187      16.562    -404.232
  H       -0.863      17.845    -406.951
  H       -2.747      16.398    -407.151
  H       -1.529      14.137    -405.996
  H       -0.167      13.902    -408.047
  H        6.079      19.678    -404.157
  H        5.422      19.594    -405.787
  H       -1.840      14.350    -408.446
  P       -4.438      16.373    -405.227
  C       -4.821      14.482    -406.974
  O       -4.895      15.855    -406.673
  O       -4.668      17.811    -404.909
  O       -5.094      15.347    -404.183
  H       -4.543      14.545    -404.070
  H       -5.138      14.330    -408.010
  H       -5.490      13.914    -406.316
  H       -3.793      14.115    -406.860
  H        0.644      14.229    -412.490
  H        1.493      15.718    -412.148
  H       -0.231      15.616    -411.885

 3  4  5  6  7  8  9  10  11  12  22  25  29  30  31  32 0
 6-311+G(2d,p)
 ****
 33  36  37 0
 6-311+G(2d,p)
 ****
 1  2  13  14  15  16  17  18  19  20  21  23  24  26 0
 3-21G
 ****
 27  28  34  35  38  39  40  41  42  43  44  45  46  47  48 0
 3-21G
 ****


