%nproc=1
%NoSave
%Mem=1900MB
#P OB98/GEN NMR

erre ene a

0 1
  C       87.973    -194.183      68.441
  O       89.316    -194.008      68.041
  H       87.514    -193.199      68.566
  H       87.916    -194.718      69.392
  H       87.420    -194.730      67.673
  P       90.266    -195.294      67.942
  C       91.317    -195.660      65.619
  O       91.388    -194.947      66.846
  C       90.516    -194.873      64.580
  O       91.121    -193.561      64.428
  C       90.475    -195.543      63.202
  O       89.182    -195.324      62.634
  C       91.532    -194.779      62.431
  O       91.311    -194.850      61.036
  C       91.426    -193.375      63.034
  N       92.664    -192.621      62.840
  C       92.792    -191.931      61.630
  O       91.884    -191.962      60.798
  N       93.965    -191.276      61.360
  C       94.950    -191.349      62.198
  N       96.099    -190.709      61.850
  C       94.872    -192.089      63.473
  C       93.712    -192.693      63.729
  O       89.581    -196.604      67.740
  O       91.084    -195.266      69.318
  H       92.056    -194.418      60.566
  H       90.613    -195.784      69.997
  H       95.724    -192.125      64.135
  H       93.566    -193.269      64.636
  H       90.599    -192.816      62.578
  H       92.521    -195.206      62.638
  H       90.691    -196.615      63.240
  H       89.504    -194.713      64.970
  H       96.114    -190.236      60.955
  H       90.823    -196.618      65.814
  H       96.944    -190.731      62.400
  H       92.327    -195.855      65.245
  P       88.010    -196.403      62.831
  C       86.029    -194.878      62.285
  O       86.777    -196.017      61.875
  O       87.634    -196.665      64.253
  O       88.597    -197.732      62.152
  H       88.227    -198.513      62.603
  H       85.235    -194.703      61.589
  H       86.671    -194.022      62.317
  H       85.619    -195.052      63.258

 6  7  8  9  10  11  12  13  14  15  16  26  30  31  32  33  35 0
 6-311+G(2d,p)
 ****
 37  38 0
 6-311+G(2d,p)
 ****
 1  2  3  4  5  17  18  19  20  21  22  23  24  25 0
 3-21G
 ****
 27  28  29  34  36  39  40  41  42  43  44  45  46 0
 3-21G
 ****


