%nproc=1
%NoSave
%Mem=1900MB
#P OB98/GEN NMR

erre ene a

0 1
  C       20.337     -44.425       9.531
  O       19.883     -44.292      10.875
  P       18.401     -44.594      11.377
  C       19.189     -44.389      13.877
  O       18.246     -44.046      12.871
  C       20.464     -43.542      13.751
  O       20.134     -42.153      14.056
  C       21.557     -43.974      14.735
  O       22.861     -43.993      14.166
  C       21.330     -43.049      15.919
  O       22.458     -42.937      16.773
  C       20.875     -41.763      15.235
  N       20.776     -38.464      19.128
  C       21.822     -39.231      18.659
  N       22.996     -39.123      19.316
  N       21.724     -40.047      17.643
  C       20.479     -40.120      17.125
  C       19.357     -39.422      17.514
  C       19.489     -38.484      18.607
  O       18.600     -37.765      19.050
  N       18.272     -39.753      16.743
  C       18.730     -40.662      15.907
  N       20.070     -40.913      16.094
  O       17.888     -45.968      11.108
  O       17.494     -43.566      10.527
  H       23.175     -42.513      16.266
  H       16.634     -44.011      10.386
  H       20.914     -37.835      19.901
  H       18.144     -41.157      15.141
  H       21.717     -41.148      14.912
  H       20.516     -43.474      16.519
  H       23.107     -38.611      20.176
  H       21.404     -45.011      15.055
  H       23.688     -39.845      19.110
  H       20.816     -43.587      12.715
  H       19.427     -45.446      13.719
  H       18.748     -44.294      14.870
  P       23.959     -45.150      14.225
  C       25.724     -44.429      12.510
  O       25.388     -44.514      13.882
  O       23.662     -46.070      12.951
  O       23.933     -45.971      15.473
  H       23.432     -46.974      13.244
  H       26.797     -44.237      12.422
  H       25.177     -43.602      12.050
  H       25.486     -45.362      11.993
  H       21.372     -44.158       9.476
  H       19.768     -43.778       8.897
  H       20.213     -45.438       9.211

 3  4  5  6  7  8  9  10  11  12  23  26  30  31 0
 6-311+G(2d,p)
 ****
 33  35  36  37  38 0
 6-311+G(2d,p)
 ****
 1  2  13  14  15  16  17  18  19  20  21  22  24  25 0
 3-21G
 ****
 27  28  29  32  34  39  40  41  42  43  44  45  46  47  48  49 0
 3-21G
 ****


