%nproc=1
%NoSave
%Mem=1900MB
#P OB98/GEN NMR

erre ene a

0 1
  C     -462.200    1089.427    -331.074
  O     -461.215    1089.862    -332.004
  P     -460.725    1091.396    -331.911
  C     -460.894    1092.134    -334.392
  O     -460.045    1091.720    -333.314
  C     -460.109    1092.228    -335.689
  O     -458.949    1093.106    -335.497
  C     -459.526    1090.924    -336.214
  O     -460.516    1090.151    -336.912
  C     -458.449    1091.420    -337.152
  O     -459.029    1091.789    -338.416
  C     -457.924    1092.671    -336.436
  N     -452.941    1091.837    -336.770
  C     -453.872    1092.021    -337.759
  N     -453.420    1092.027    -339.024
  N     -455.162    1092.194    -337.529
  C     -455.464    1092.243    -336.218
  C     -454.624    1092.065    -335.118
  C     -453.229    1091.810    -335.402
  O     -452.367    1091.579    -334.558
  N     -455.325    1092.189    -333.946
  C     -456.553    1092.470    -334.312
  N     -456.713    1092.471    -335.678
  O     -459.475    1091.307    -330.902
  O     -461.753    1092.358    -331.425
  H     -459.290    1090.950    -338.865
  H     -459.350    1092.169    -330.460
  H     -451.969    1091.730    -336.995
  H     -457.374    1092.644    -333.608
  H     -457.766    1093.507    -337.117
  H     -457.675    1090.669    -337.338
  H     -452.440    1092.019    -339.263
  H     -459.074    1090.354    -335.399
  H     -454.072    1092.194    -339.768
  H     -460.751    1092.697    -336.445
  H     -461.333    1093.108    -334.155
  H     -461.705    1091.398    -334.500
  P     -460.734    1088.644    -336.381
  C     -459.571    1088.001    -338.627
  O     -460.619    1087.745    -337.698
  O     -462.290    1088.611    -336.033
  O     -459.889    1088.259    -335.220
  H     -462.487    1087.929    -335.352
  H     -458.649    1088.297    -338.066
  H     -459.865    1088.787    -339.294
  H     -459.358    1087.083    -339.169
  H     -462.428    1088.397    -331.251
  H     -463.087    1090.014    -331.193
  H     -461.826    1089.544    -330.078

 3  4  5  6  7  8  9  10  11  12  23  26  30  31  33  0
 6-311+G(2d,p)
 ****
 35  36  37  38 0
 6-311+G(2d,p)
 ****
 1  2  13  14  15  16  17  18  19  20  21  22  24  25  27  28  29 0
 3-21G
 ****
 32  34  39  40  41  42  43  44  45  46  47  48  49 0
 3-21G
 ****


