%nproc=1
%NoSave
%Mem=1900MB
#P OB98/GEN NMR

erre ene a

0 1
  C     -586.953     275.514     223.892
  O     -587.839     276.311     224.655
  H     -586.608     274.687     224.514
  H     -586.088     276.108     223.590
  H     -587.460     275.111     223.011
  P     -588.599     277.501     223.894
  C     -590.975     276.484     224.165
  O     -590.094     277.548     224.489
  C     -591.715     276.006     225.416
  O     -590.795     275.245     226.243
  C     -592.286     277.141     226.268
  O     -593.557     276.739     226.785
  C     -591.293     277.267     227.409
  O     -591.874     277.841     228.582
  C     -590.812     275.821     227.566
  N     -589.496     275.757     228.199
  C     -589.480     275.545     229.587
  O     -590.540     275.428     230.212
  N     -588.270     275.524     230.236
  C     -587.183     275.780     229.579
  N     -586.022     275.776     230.291
  C     -587.163     276.076     228.134
  C     -588.344     276.042     227.507
  O     -588.814     276.925     222.420
  O     -587.892     278.817     223.901
  H     -591.173     277.898     229.274
  H     -588.797     277.645     221.754
  H     -586.234     276.311     227.637
  H     -588.424     276.257     226.456
  H     -591.528     275.242     228.175
  H     -590.459     277.915     227.100
  H     -592.398     278.080     225.712
  H     -592.513     275.315     225.107
  H     -586.079     275.586     231.286
  H     -590.392     275.654     223.758
  H     -585.124     276.008     229.901
  H     -591.684     276.822     223.405
  P     -594.468     277.884     227.436
  C     -596.541     277.481     225.911
  O     -596.007     277.476     227.234
  O     -594.268     279.126     226.446
  O     -594.083     278.231     228.837
  H     -593.727     279.811     226.878
  H     -597.570     277.189     225.941
  H     -595.992     276.793     225.302
  H     -596.461     278.465     225.498

 6  7  8  9  10  11  12  13  14  15  16  26  30  31  32  33  35 0
 6-311+G(2d,p)
 ****
 37  38 0
 6-311+G(2d,p)
 ****
 1  2  3  4  5  17  18  19  20  21  22  23  24  25 0
 3-21G
 ****
 27  28  29  34  36  39  40  41  42  43  44  45  46 0
 3-21G
 ****


