%nproc=1
%NoSave
%Mem=1900MB
#P OB98/GEN NMR

erre ene a

0 1
  C      107.618     342.227    -270.922
  O      107.355     342.789    -269.653
  H      107.848     341.167    -270.792
  H      108.481     342.716    -271.379
  H      106.748     342.319    -271.577
  P      106.827     344.300    -269.572
  C      105.538     343.727    -267.416
  O      106.482     344.593    -268.035
  C      104.817     344.467    -266.291
  O      104.180     345.656    -266.810
  C      103.702     343.660    -265.640
  O      104.214     342.667    -264.776
  C      102.910     344.764    -264.961
  O      103.500     345.128    -263.707
  C      103.030     345.921    -265.977
  N      101.818     346.073    -266.782
  C      100.783     346.799    -266.203
  O      100.852     347.308    -265.087
  N       99.626     346.873    -266.934
  C       99.371     346.188    -268.087
  O       98.248     346.085    -268.572
  C      100.519     345.489    -268.681
  C      101.669     345.452    -268.006
  O      105.753     344.661    -270.544
  O      108.149     345.172    -269.813
  H      108.154     345.500    -270.733
  H      102.819     345.642    -263.230
  H       98.856     347.362    -266.502
  H      100.373     344.992    -269.634
  H      102.522     344.914    -268.408
  H      103.225     346.868    -265.458
  H      101.882     344.459    -264.768
  H      103.076     343.201    -266.415
  H      105.562     344.774    -265.547
  H      106.069     342.865    -267.001
  H      104.825     343.378    -268.172
  P      103.992     341.115    -265.104
  C      105.997     340.486    -263.625
  O      104.622     340.252    -263.910
  O      104.411     340.689    -266.472
  O      102.417     340.897    -264.902
  H      102.060     340.440    -265.689
  H      106.305     339.858    -262.815
  H      106.135     341.512    -263.354
  H      106.584     340.264    -264.492

 6  7  8  9  10  11  12  13  14  15  16  27  31  32  33  34  35 0
 6-311+G(2d,p)
 ****
 36  37 0
 6-311+G(2d,p)
 ****
 1  2  3  4  5  17  18  19  20  21  22  23  24  25 0
 3-21G
 ****
 26  28  29  30  38  39  40  41  42  43  44  45 0
 3-21G
 ****


