%nproc=1
%NoSave
%Mem=1900MB
#P OB98/GEN NMR

erre ene a

0 1
  C      -87.344     -51.517      38.018
  O      -87.706     -52.558      38.904
  H      -88.255     -51.066      37.619
  H      -86.750     -51.912      37.189
  H      -86.776     -50.752      38.554
  P      -86.503     -53.379      39.577
  C      -87.819     -55.546      39.116
  O      -87.191     -54.734      40.100
  C      -88.520     -56.736      39.772
  O      -87.511     -57.607      40.343
  C      -89.478     -56.334      40.896
  O      -90.628     -57.179      40.857
  C      -88.683     -56.614      42.159
  O      -89.521     -56.862      43.285
  C      -87.830     -57.807      41.731
  N      -84.973     -60.945      44.561
  C      -86.062     -61.160      43.794
  N      -86.755     -60.266      43.056
  C      -86.186     -59.049      43.129
  C      -85.080     -58.678      43.871
  C      -84.463     -59.692      44.623
  N      -83.368     -59.476      45.428
  N      -84.830     -57.327      43.722
  C      -85.761     -56.895      42.893
  N      -86.614     -57.898      42.521
  O      -85.701     -52.636      40.592
  O      -85.691     -53.877      38.292
  H      -89.917     -56.011      43.568
  H      -86.291     -54.211      37.598
  H      -86.430     -62.183      43.772
  H      -85.869     -55.873      42.546
  H      -88.359     -58.762      41.835
  H      -88.050     -55.749      42.394
  H      -89.784     -55.290      40.831
  H      -89.035     -57.314      38.996
  H      -87.078     -55.909      38.396
  H      -82.978     -60.263      45.923
  H      -82.962     -58.552      45.474
  H      -88.546     -54.926      38.582
  P      -91.634     -57.041      39.618
  C      -93.997     -57.605      40.490
  O      -92.837     -58.085      39.818
  O      -91.007     -57.037      38.264
  O      -92.354     -55.637      39.914
  H      -92.503     -55.175      39.066
  H      -94.720     -58.391      40.559
  H      -94.413     -56.785      39.942
  H      -93.730     -57.278      41.473

 6  7  8  9  10  11  12  13  14  15  25  28  32  33  34  35 0
 6-311+G(2d,p)
 ****
 36  39  40 0
 6-311+G(2d,p)
 ****
 1  2  3  4  5  16  17  18  19  20  21  22  23  24 0
 3-21G
 ****
 26  27  29  30  31  37  38  41  42  43  44  45  46  47 0
 3-21G
 ****
 48 0
 3-21G
 ****


