%nproc=1
%NoSave
%Mem=1900MB
#P OB98/GEN NMR

erre ene a

0 1
  C      -43.961      72.879    -366.142
  O      -42.750      73.241    -366.778
  H      -43.744      72.568    -365.116
  H      -44.420      72.041    -366.673
  H      -44.652      73.728    -366.116
  P      -42.869      73.923    -368.224
  C      -43.034      71.549    -369.266
  O      -43.594      72.850    -369.176
  C      -43.187      71.000    -370.680
  O      -44.581      70.731    -370.970
  C      -42.705      71.949    -371.779
  O      -41.295      71.869    -371.965
  C      -43.453      71.391    -372.979
  O      -42.795      70.190    -373.447
  C      -44.818      71.050    -372.369
  N      -47.840      73.688    -375.477
  C      -46.954      72.654    -375.757
  N      -46.867      72.275    -377.048
  N      -46.234      72.045    -374.856
  C      -46.421      72.538    -373.600
  C      -47.262      73.556    -373.199
  C      -48.067      74.210    -374.206
  O      -48.872      75.115    -374.012
  N      -47.189      73.762    -371.845
  C      -46.294      72.888    -371.430
  N      -45.790      72.124    -372.459
  O      -41.356      73.923    -368.761
  O      -43.450      75.297    -368.240
  H      -42.670      69.618    -372.672
  H      -41.207      74.736    -369.283
  H      -48.364      74.126    -376.212
  H      -45.971      72.766    -370.404
  H      -45.270      70.163    -372.835
  H      -43.476      72.085    -373.820
  H      -47.357      72.734    -377.802
  H      -43.029      72.977    -371.590
  H      -46.252      71.499    -377.276
  H      -42.648      70.042    -370.738
  H      -43.549      70.885    -368.563
  H      -41.971      71.596    -368.992
  P      -40.571      73.104    -372.696
  C      -40.401      71.903    -374.996
  O      -40.968      72.977    -374.250
  O      -39.022      72.677    -372.675
  O      -40.800      74.434    -372.062
  H      -38.461      73.472    -372.743
  H      -40.752      71.945    -376.006
  H      -40.691      70.971    -374.556
  H      -39.334      71.986    -374.986

 6  7  8  9  10  11  12  13  14  15  26  29  33  34 0
 6-311+G(2d,p)
 ****
 36  38  39  40  41 0
 6-311+G(2d,p)
 ****
 1  2  3  4  5  16  17  18  19  20  21  22  23  24  25 0
 3-21G
 ****
 27  28  30  31  32  35  37  42  43  44  45  46  47 0
 3-21G
 ****
 48  49 0
 3-21G
 ****


