%nproc=1
%NoSave
%Mem=1900MB
#P OB98/GEN NMR

erre ene a

0 1
  C      311.170     551.130     -92.472
  O      311.671     552.425     -92.758
  P      311.816     553.453     -91.538
  C      309.876     554.888     -92.543
  O      310.416     554.230     -91.400
  C      308.478     555.409     -92.221
  O      307.557     554.319     -92.006
  C      308.421     556.245     -90.942
  O      308.893     557.571     -91.160
  C      306.939     556.178     -90.600
  O      306.193     557.165     -91.336
  C      306.569     554.755     -91.060
  N      306.429     553.825     -89.942
  C      305.300     553.982     -89.155
  O      304.450     554.857     -89.360
  N      305.170     553.114     -88.103
  C      306.086     552.163     -87.727
  O      305.945     551.456     -86.737
  C      307.283     552.068     -88.580
  C      307.401     552.894     -89.624
  O      312.809     554.572     -92.101
  O      312.310     552.847     -90.273
  H      306.492     557.101     -92.267
  H      313.388     554.895     -91.375
  H      304.342     553.192     -87.536
  H      308.027     551.330     -88.311
  H      308.283     552.849     -90.256
  H      305.614     554.771     -91.611
  H      306.747     556.376     -89.536
  H      308.993     555.755     -90.142
  H      308.118     556.000     -93.082
  H      309.824     554.189     -93.380
  H      310.540     555.711     -92.818
  P      309.080     558.498     -89.863
  C      307.153     559.947     -90.859
  O      307.712     559.304     -89.722
  O      310.147     559.556     -90.410
  O      309.525     557.727     -88.660
  H      310.033     559.732     -91.361
  H      307.326     559.368     -91.771
  H      307.594     560.935     -90.969
  H      306.067     560.051     -90.710
  H      311.128     550.557     -93.374
  H      310.188     551.212     -92.055
  H      311.816     550.644     -91.771

 3  4  5  6  7  8  9  10  11  12  13  23  28  29  30  31  32 0
 6-311+G(2d,p)
 ****
 33  34 0
 6-311+G(2d,p)
 ****
 1  2  14  15  16  17  18  19  20  21  22  24  25  26 0
 3-21G
 ****
 27  35  36  37  38  39  40  41  42  43  44  45 0
 3-21G
 ****


