%nproc=1
%NoSave
%Mem=1900MB
#P OB98/GEN NMR

erre ene a

0 1
  C       27.479     -11.586      29.855
  O       26.301     -11.100      30.493
  P       25.549      -9.748      30.102
  C       23.008      -9.157      30.366
  O       24.197      -9.666      30.953
  C       21.923      -8.815      31.401
  O       21.555     -10.015      32.130
  C       22.460      -7.827      32.437
  O       22.467      -6.440      32.159
  C       21.746      -8.197      33.729
  O       20.568      -7.420      33.946
  C       21.383      -9.670      33.521
  N       22.675     -11.090      38.262
  C       21.883     -10.037      37.852
  N       21.410      -9.225      38.822
  N       21.594      -9.792      36.603
  C       22.201     -10.627      35.731
  C       23.023     -11.693      36.013
  C       23.291     -11.992      37.405
  O       23.976     -12.920      37.822
  N       23.473     -12.299      34.868
  C       22.944     -11.587      33.895
  N       22.156     -10.563      34.368
  O       25.446      -9.467      28.641
  O       26.479      -8.603      30.754
  H       20.177      -7.698      34.793
  H       26.415      -7.823      30.166
  H       22.846     -11.248      39.240
  H       23.093     -11.772      32.838
  H       20.329      -9.854      33.758
  H       22.398      -8.020      34.593
  H       21.693      -9.289      39.787
  H       23.515      -8.081      32.603
  H       21.014      -8.336      38.515
  H       21.010      -8.473      30.909
  H       22.647      -9.920      29.671
  H       23.236      -8.274      29.768
  P       23.760      -5.503      32.041
  C       24.498      -3.475      30.661
  O       23.416      -4.312      31.030
  O       24.800      -6.384      31.202
  O       24.352      -5.078      33.344
  H       25.701      -6.023      31.291
  H       24.102      -2.547      30.240
  H       25.107      -3.977      29.905
  H       25.119      -3.234      31.530
  H       27.775     -12.509      30.308
  H       28.265     -10.868      29.962
  H       27.281     -11.746      28.816

 3  4  5  6  7  8  9  10  11  12  23  26  30  31 0
 6-311+G(2d,p)
 ****
 33  35  36  37  38 0
 6-311+G(2d,p)
 ****
 1  2  13  14  15  16  17  18  19  20  21  22  24  25 0
 3-21G
 ****
 27  28  29  32  34  39  40  41  42  43  44  45  46  47  48  49 0
 3-21G
 ****


