%nproc=1
%NoSave
%Mem=1900MB
#P OB98/GEN NMR

erre ene a

0 1
  C       28.205     402.212     278.483
  O       29.540     402.603     278.741
  H       28.196     401.541     277.620
  H       27.590     403.086     278.256
  H       27.792     401.684     279.346
  P       29.751     403.680     279.917
  C       29.875     401.655     281.563
  O       29.266     402.895     281.232
  C       29.720     401.386     283.052
  O       30.269     400.094     283.396
  C       30.443     402.387     283.947
  O       29.740     403.610     284.090
  C       30.487     401.606     285.247
  O       29.193     401.632     285.874
  C       30.828     400.187     284.736
  N       32.266     399.914     284.712
  C       32.703     398.799     285.438
  O       31.905     398.108     286.071
  N       34.048     398.513     285.465
  C       34.883     399.264     284.816
  N       36.202     398.943     284.887
  C       34.465     400.435     284.023
  C       33.158     400.699     284.018
  O       28.569     404.731     279.682
  O       31.109     404.289     280.009
  H       28.862     402.548     285.808
  H       28.536     405.371     280.433
  H       35.196     401.035     283.505
  H       32.776     401.545     283.453
  H       30.334     399.421     285.349
  H       31.201     402.017     285.967
  H       31.470     402.561     283.609
  H       28.643     401.351     283.280
  H       36.467     398.172     285.488
  H       30.936     401.711     281.295
  H       36.933     399.567     284.569
  H       29.404     400.847     280.995
  P       30.510     404.835     284.786
  C       31.556     405.340     282.461
  O       31.774     405.178     283.856
  O       31.175     404.158     286.074
  O       29.645     406.005     285.148
  H       31.143     404.761     286.842
  H       32.485     405.563     281.978
  H       30.867     406.143     282.298
  H       31.152     404.436     282.056

 6  7  8  9  10  11  12  13  14  15  16  26  30  31  32  33  35 0
 6-311+G(2d,p)
 ****
 37  38 0
 6-311+G(2d,p)
 ****
 1  2  3  4  5  17  18  19  20  21  22  23  24  25 0
 3-21G
 ****
 27  28  29  34  36  39  40  41  42  43  44  45  46 0
 3-21G
 ****


