%nproc=1
%NoSave
%Mem=1900MB
#P OB98/GEN NMR

erre ene a

0 1
  C      -73.961      19.306    -172.685
  O      -73.711      18.786    -171.391
  P      -72.755      17.497    -171.296
  C      -70.675      19.069    -171.435
  O      -71.353      17.929    -171.937
  C      -69.252      18.684    -171.027
  O      -69.272      17.890    -169.824
  C      -68.504      17.860    -172.068
  O      -67.963      18.700    -173.070
  C      -67.452      17.168    -171.209
  O      -66.340      18.047    -170.952
  C      -68.233      16.877    -169.920
  N      -67.468      12.062    -168.588
  C      -66.580      13.118    -168.652
  N      -65.313      12.860    -168.259
  N      -66.903      14.316    -169.058
  C      -68.200      14.423    -169.431
  C      -69.171      13.450    -169.429
  C      -68.812      12.143    -168.928
  O      -69.584      11.202    -168.761
  N      -70.365      13.929    -169.901
  C      -70.122      15.198    -170.157
  N      -68.830      15.555    -169.871
  O      -73.387      16.499    -172.372
  O      -72.647      16.883    -169.935
  H      -66.021      18.417    -171.795
  H      -73.960      15.838    -171.937
  H      -67.167      11.165    -168.250
  H      -70.850      15.903    -170.530
  H      -67.605      16.976    -169.027
  H      -67.041      16.279    -171.697
  H      -64.986      11.956    -167.957
  H      -69.170      17.109    -172.511
  H      -64.646      13.621    -168.303
  H      -68.705      19.609    -170.806
  H      -71.210      19.450    -170.560
  H      -70.659      19.846    -172.206
  P      -67.849      18.104    -174.555
  C      -70.251      18.507    -175.453
  O      -69.303      17.577    -174.966
  O      -66.998      16.763    -174.349
  O      -67.196      19.016    -175.540
  H      -66.410      16.627    -175.116
  H      -70.923      17.993    -176.145
  H      -69.771      19.340    -175.974
  H      -70.834      18.896    -174.614
  H      -74.606      20.156    -172.609
  H      -74.429      18.555    -173.287
  H      -73.036      19.599    -173.136

 3  4  5  6  7  8  9  10  11  12  23  26  30  31 0
 6-311+G(2d,p)
 ****
 33  35  36  37  38 0
 6-311+G(2d,p)
 ****
 1  2  13  14  15  16  17  18  19  20  21  22  24  25 0
 3-21G
 ****
 27  28  29  32  34  39  40  41  42  43  44  45  46  47  48  49 0
 3-21G
 ****


