%nproc=1
%NoSave
%Mem=1900MB
#P OB98/GEN NMR

erre ene a

0 1
  C     -897.320     228.949    -668.798
  O     -897.940     230.177    -668.404
  P     -898.640     231.083    -669.520
  C     -896.520     232.493    -670.265
  O     -897.550     231.586    -670.584
  C     -895.240     232.110    -671.031
  O     -895.530     232.020    -672.437
  C     -894.100     233.097    -670.849
  O     -893.320     232.828    -669.709
  C     -893.340     232.933    -672.152
  O     -892.520     231.743    -672.103
  C     -894.490     232.755    -673.177
  N     -895.110     233.969    -673.747
  C     -894.370     234.774    -674.632
  O     -893.220     234.524    -674.984
  N     -895.010     235.870    -675.119
  C     -896.330     236.178    -674.968
  O     -896.880     237.157    -675.503
  C     -897.110     235.221    -674.157
  C     -896.480     234.202    -673.582
  O     -899.040     232.429    -668.729
  O     -899.830     230.444    -670.177
  H     -892.140     231.619    -672.993
  H     -900.000     232.515    -668.700
  H     -894.480     236.497    -675.714
  H     -898.170     235.403    -674.047
  H     -897.030     233.492    -672.955
  H     -894.180     232.130    -674.021
  H     -892.650     233.769    -672.323
  H     -894.490     234.118    -670.816
  H     -894.930     231.104    -670.680
  H     -896.320     232.494    -669.188
  H     -896.820     233.517    -670.536
  P     -893.630     233.614    -668.326
  C     -891.450     234.879    -668.756
  O     -892.820     234.996    -668.449
  O     -893.430     232.839    -667.066
  O     -895.150     234.103    -668.518
  H     -895.770     233.465    -668.058
  H     -891.030     235.884    -668.948
  H     -891.290     234.260    -669.644
  H     -890.890     234.444    -667.894
  H     -896.902     228.468    -667.938
  H     -896.543     229.152    -669.505
  H     -898.051     228.308    -669.245

 3  4  5  6  7  8  9  10  11  12  13  23  28  29  30  31  32 0
 6-311+G(2d,p)
 ****
 33  34 0
 6-311+G(2d,p)
 ****
 1  2  14  15  16  17  18  19  20  21  22  24  25  26  27 0
 3-21G
 ****
 35  36  37  38  39  40  41  42  43  44  45 0
 3-21G
 ****


