%nproc=1
%NoSave
%Mem=1900MB
#P OB98/GEN NMR

erre ene a

0 1
  C      513.843     239.399    -498.126
  O      512.536     239.410    -498.655
  H      514.188     238.360    -498.065
  H      513.847     239.825    -497.119
  H      514.533     239.955    -498.767
  P      511.871     240.816    -499.039
  C      510.851     242.751    -497.678
  O      511.150     241.364    -497.717
  C      510.203     243.113    -496.342
  O      508.966     242.386    -496.175
  C      511.050     242.758    -495.126
  O      512.106     243.687    -494.956
  C      509.997     242.776    -494.031
  O      509.720     244.124    -493.611
  C      508.781     242.168    -494.764
  N      508.590     240.743    -494.474
  C      507.840     240.436    -493.346
  O      507.379     241.287    -492.591
  N      507.645     239.096    -493.107
  C      508.189     238.070    -493.822
  O      508.026     236.889    -493.529
  C      509.000     238.459    -494.980
  C      509.164     239.753    -495.252
  O      511.020     240.819    -500.266
  O      513.126     241.796    -499.194
  H      509.288     244.567    -494.369
  H      513.340     241.912    -500.137
  H      507.111     238.857    -492.286
  H      509.454     237.667    -495.566
  H      509.762     240.058    -496.099
  H      507.864     242.692    -494.480
  H      510.309     242.228    -493.139
  H      511.444     241.739    -495.220
  H      509.968     244.183    -496.354
  H      510.157     242.989    -498.491
  H      511.776     243.323    -497.825
  P      513.223     243.467    -493.831
  C      513.729     244.755    -491.681
  O      512.712     244.192    -492.493
  O      514.615     243.817    -494.234
  O      513.104     241.912    -493.468
  H      513.858     241.419    -493.850
  H      513.286     245.211    -490.820
  H      514.264     245.494    -492.240
  H      514.404     243.985    -491.370

 6  7  8  9  10  11  12  13  14  15  16  26  31  32  33  34  35 0
 6-311+G(2d,p)
 ****
 36  37 0
 6-311+G(2d,p)
 ****
 1  2  3  4  5  17  18  19  20  21  22  23  24  25 0
 3-21G
 ****
 27  28  29  30  38  39  40  41  42  43  44  45 0
 3-21G
 ****


