%nproc=1
%NoSave
%Mem=1900MB
#P OB98/GEN NMR

erre ene a

0 1
  C     -294.046       2.723     112.806
  O     -295.349       2.139     112.715
  P     -295.594       1.058     111.552
  C     -293.904      -0.891     111.983
  O     -295.203      -0.368     112.189
  C     -293.831      -2.363     112.417
  O     -294.520      -2.534     113.693
  C     -294.454      -3.347     111.418
  O     -293.637      -4.531     111.438
  C     -295.815      -3.634     112.022
  O     -296.355      -4.865     111.557
  C     -295.472      -3.603     113.517
  N     -296.651      -3.417     114.360
  C     -297.276      -4.569     114.832
  O     -296.926      -5.703     114.506
  N     -298.348      -4.369     115.658
  C     -298.900      -3.162     115.984
  O     -299.859      -3.043     116.730
  C     -298.267      -1.984     115.363
  C     -297.190      -2.167     114.590
  O     -294.395       1.390     110.552
  O     -296.961       1.141     110.956
  H     -293.569       1.645     111.006
  H     -295.740      -5.592     111.798
  H     -298.798      -5.191     116.037
  H     -298.711      -1.015     115.550
  H     -296.715      -1.325     114.102
  H     -294.978      -4.535     113.814
  H     -296.516      -2.830     111.767
  H     -294.500      -2.950     110.398
  H     -292.776      -2.615     112.582
  H     -293.173      -0.318     112.568
  H     -293.627      -0.779     110.926
  P     -292.823      -4.914     110.102
  C     -290.711      -3.663     111.023
  O     -291.265      -4.838     110.462
  O     -293.062      -3.582     109.239
  O     -293.297      -6.150     109.404
  H     -292.903      -2.767     109.743
  H     -289.716      -3.894     111.411
  H     -291.326      -3.294     111.847
  H     -290.624      -2.891     110.253
  H     -294.023       3.420     113.618
  H     -293.819       3.232     111.893
  H     -293.322       1.954     112.976

 3  4  5  6  7  8  9  10  11  12  13  24  28  29  30  31  32 0
 6-311+G(2d,p)
 ****
 33  34 0
 6-311+G(2d,p)
 ****
 1  2  14  15  16  17  18  19  20  21  22  23  25  26  27 0
 3-21G
 ****
 35  36  37  38  39  40  41  42  43  44  45 0
 3-21G
 ****


