%nproc=1
%NoSave
%Mem=1900MB
#P OB98/GEN NMR

erre ene a

0 1
  C     -135.641     106.674     -79.042
  O     -137.066     106.693     -79.164
  P     -137.672     107.484     -80.430
  C     -139.517     109.007     -79.402
  O     -139.209     107.807     -80.101
  C     -140.142     108.697     -78.044
  O     -139.227     107.968     -77.206
  C     -140.523     109.932     -77.235
  O     -141.755     110.486     -77.670
  C     -140.664     109.334     -75.840
  O     -141.963     108.737     -75.692
  C     -139.570     108.254     -75.828
  N     -136.906     107.895     -71.530
  C     -138.117     107.323     -71.873
  N     -138.685     106.519     -70.945
  N     -138.715     107.520     -73.015
  C     -138.016     108.322     -73.857
  C     -136.813     108.949     -73.632
  C     -136.175     108.748     -72.349
  O     -135.122     109.255     -71.982
  N     -136.413     109.675     -74.724
  C     -137.360     109.469     -75.618
  N     -138.364     108.664     -75.134
  O     -137.766     106.345     -81.551
  O     -136.842     108.642     -80.873
  H     -142.097     108.148     -76.459
  H     -137.711     106.746     -82.440
  H     -136.495     107.716     -70.631
  H     -137.365     109.869     -76.625
  H     -139.925     107.321     -75.379
  H     -140.568     110.085     -75.048
  H     -138.245     106.266     -70.073
  H     -139.713     110.669     -77.243
  H     -139.555     106.060     -71.195
  H     -141.032     108.074     -78.214
  H     -140.210     109.612     -79.992
  H     -138.601     109.596     -79.288
  P     -141.709     111.957     -78.312
  C     -143.368     112.889     -76.546
  O     -143.101     112.642     -77.913
  O     -141.849     111.673     -79.880
  O     -140.476     112.733     -77.988
  H     -141.404     112.378     -80.391
  H     -142.489     113.294     -76.037
  H     -143.678     111.961     -76.059
  H     -144.182     113.615     -76.472
  H     -135.365     106.122     -78.168
  H     -135.277     107.677     -78.960
  H     -135.215     106.209     -79.907

 3  4  5  6  7  8  9  10  11  12  23  26  30  31  33  0
 6-311+G(2d,p)
 ****
 35  36  37  38 0
 6-311+G(2d,p)
 ****
 1  2  13  14  15  16  17  18  19  20  21  22  24  25  27  28  29 0
 3-21G
 ****
 32  34  39  40  41  42  43  44  45  46  47  48  49 0
 3-21G
 ****


