%nproc=1
%NoSave
%Mem=1900MB
#P OB98/GEN NMR

erre ene a

0 1
  C      644.884     335.435    -387.721
  O      646.226     335.220    -387.328
  H      644.261     334.646    -387.280
  H      644.792     335.392    -388.806
  H      644.534     336.403    -387.352
  P      647.313     336.250    -387.912
  C      648.785     334.453    -389.034
  O      648.675     335.397    -387.969
  C      648.498     333.039    -388.526
  O      649.167     332.856    -387.249
  C      647.003     332.759    -388.305
  O      646.734     331.393    -388.642
  C      646.837     332.953    -386.800
  O      645.703     332.256    -386.290
  C      648.186     332.434    -386.287
  N      647.085     331.999    -381.332
  C      646.771     331.233    -382.399
  N      647.119     331.417    -383.687
  C      647.938     332.479    -383.814
  C      648.343     333.350    -382.817
  C      647.879     333.081    -381.516
  N      648.172     333.864    -380.429
  N      649.134     334.351    -383.350
  C      649.213     334.086    -384.643
  N      648.488     332.968    -384.966
  O      647.414     337.554    -387.198
  O      646.889     336.333    -389.458
  H      644.901     332.567    -386.763
  H      646.725     335.446    -389.830
  H      646.128     330.369    -382.188
  H      649.767     334.662    -385.380
  H      648.223     331.334    -386.212
  H      646.716     334.011    -386.568
  H      646.356     333.423    -388.871
  H      648.941     332.311    -389.224
  H      649.802     334.483    -389.462
  H      647.791     333.606    -379.526
  H      648.761     334.681    -380.543
  H      648.068     334.733    -389.813
  P      646.220     331.048    -390.115
  C      644.557     329.411    -389.031
  O      645.477     329.623    -390.097
  O      647.236     331.212    -391.205
  O      645.003     332.071    -390.333
  H      645.039     332.449    -391.229
  H      644.126     328.436    -389.120
  H      643.783     330.148    -389.076
  H      645.071     329.489    -388.096

 6  7  8  9  10  11  12  13  14  15  25  28  32  33  34  35 0
 6-311+G(2d,p)
 ****
 36  39  40 0
 6-311+G(2d,p)
 ****
 1  2  3  4  5  16  17  18  19  20  21  22  23  24 0
 3-21G
 ****
 26  27  29  30  31  37  38  41  42  43  44  45  46  47 0
 3-21G
 ****
 48 0
 3-21G
 ****


