%nproc=1
%NoSave
%Mem=1900MB
#P OB98/GEN NMR

erre ene a

0 1
  C      318.406     528.000     358.503
  O      318.635     528.792     359.656
  P      317.975     530.263     359.677
  C      320.131     531.099     360.903
  O      318.711     531.067     360.852
  C      320.598     532.344     361.633
  O      320.254     533.532     360.881
  C      319.965     532.545     363.024
  O      320.646     531.760     363.983
  C      320.114     534.043     363.221
  O      321.454     534.368     363.669
  C      319.867     534.586     361.808
  N      316.642     538.487     361.780
  C      317.934     538.406     362.251
  N      318.457     539.542     362.744
  N      318.655     537.321     362.236
  C      317.994     536.247     361.724
  C      316.697     536.187     361.249
  C      315.935     537.423     361.221
  O      314.818     537.565     360.727
  N      316.378     534.917     360.831
  C      317.472     534.224     361.038
  N      318.491     534.984     361.552
  O      316.504     529.987     360.244
  O      317.960     530.963     358.356
  H      321.539     535.343     363.754
  H      315.854     529.945     359.512
  H      316.134     539.363     361.806
  H      317.587     533.176     360.801
  H      320.499     535.462     361.581
  H      319.428     534.435     363.981
  H      317.967     540.422     362.822
  H      318.899     532.283     362.992
  H      319.415     539.511     363.086
  H      321.686     532.315     361.718
  H      320.523     531.106     359.883
  H      320.496     530.199     361.420
  P      319.790     530.667     364.792
  C      320.135     531.882     367.077
  O      320.306     530.702     366.313
  O      320.329     529.264     364.223
  O      318.308     530.787     364.617
  H      319.603     528.633     364.168
  H      320.025     531.597     368.117
  H      319.232     532.431     366.755
  H      321.008     532.520     366.964
  H      318.895     527.055     358.617
  H      318.796     528.502     357.642
  H      317.354     527.845     358.380

 3  4  5  6  7  8  9  10  11  12  23  26  30  31 0
 6-311+G(2d,p)
 ****
 33  35  36  37  38 0
 6-311+G(2d,p)
 ****
 1  2  13  14  15  16  17  18  19  20  21  22  24  25 0
 3-21G
 ****
 27  28  29  32  34  39  40  41  42  43  44  45  46  47  48  49 0
 3-21G
 ****


