%nproc=1
%NoSave
%Mem=1900MB
#P OB98/GEN NMR

erre ene a

0 1
  C      -13.408     107.603    -262.784
  O      -14.360     108.541    -263.252
  P      -14.232     109.170    -264.721
  C      -13.652     111.684    -264.707
  O      -13.153     110.354    -264.584
  C      -14.355     112.122    -263.420
  O      -13.538     111.820    -262.270
  C      -14.642     113.616    -263.347
  O      -15.760     113.952    -264.147
  C      -14.853     113.801    -261.850
  O      -16.191     113.450    -261.466
  C      -13.836     112.804    -261.252
  N      -12.630     113.461    -260.768
  C      -12.826     114.494    -259.842
  O      -13.965     114.820    -259.507
  N      -11.726     115.164    -259.356
  C      -10.543     114.843    -259.779
  N       -9.494     115.548    -259.275
  C      -10.295     113.784    -260.779
  C      -11.375     113.141    -261.226
  O      -15.522     109.551    -265.367
  O      -13.422     108.046    -265.527
  H      -16.779     114.100    -261.901
  H      -13.997     107.268    -265.738
  H       -9.291     113.559    -261.108
  H      -11.284     112.349    -261.963
  H      -14.286     112.252    -260.414
  H      -14.690     114.838    -261.534
  H      -13.752     114.179    -263.662
  H      -15.291     111.553    -263.333
  H       -9.710     116.290    -258.614
  H      -14.366     111.709    -265.535
  H       -8.539     115.407    -259.561
  H      -12.823     112.360    -264.945
  P      -15.820     115.377    -264.878
  C      -17.271     117.228    -263.846
  O      -16.065     116.491    -263.750
  O      -16.731     115.451    -266.059
  O      -14.303     115.637    -265.316
  H      -14.290     115.978    -266.229
  H      -17.474     117.693    -262.877
  H      -18.111     116.578    -264.110
  H      -17.162     118.011    -264.601
  H      -13.663     107.302    -261.789
  H      -12.436     108.051    -262.783
  H      -13.405     106.747    -263.426

 3  4  5  6  7  8  9  10  11  12  13  23  27  28  29  30  32 0
 6-311+G(2d,p)
 ****
 34  35 0
 6-311+G(2d,p)
 ****
 1  2  14  15  16  17  18  19  20  21  22  24  25  26 0
 3-21G
 ****
 31  33  36  37  38  39  40  41  42  43  44  45  46 0
 3-21G
 ****


