%nproc=1
%NoSave
%Mem=1900MB
#P OB98/GEN NMR

erre ene a

0 1
  C     -289.031     250.532     487.878
  O     -290.261     249.949     488.327
  P     -291.116     248.991     487.359
  C     -293.206     250.358     487.888
  O     -292.663     249.047     487.802
  C     -294.204     250.529     489.049
  O     -295.307     249.593     488.922
  C     -293.610     250.335     490.446
  O     -294.323     251.223     491.313
  C     -293.958     248.881     490.743
  O     -293.885     248.587     492.144
  C     -295.351     248.782     490.117
  N     -295.726     247.404     489.833
  C     -296.020     246.577     490.916
  O     -295.895     247.006     492.070
  N     -296.389     245.281     490.681
  C     -296.377     244.812     489.478
  N     -296.736     243.504     489.304
  C     -295.996     245.628     488.290
  C     -295.700     246.901     488.541
  O     -290.565     247.605     487.204
  O     -291.103     249.767     485.950
  H     -294.406     249.258     492.622
  H     -291.153     249.115     485.229
  H     -295.987     245.184     487.302
  H     -295.415     247.575     487.751
  H     -296.109     249.211     490.781
  H     -293.254     248.223     490.226
  H     -292.533     250.533     490.490
  H     -294.643     251.537     488.966
  H     -296.961     242.975     490.144
  H     -293.714     250.594     486.944
  H     -296.660     243.017     488.425
  H     -292.396     251.089     487.999
  P     -293.961     252.778     491.431
  C     -293.938     252.891     493.990
  O     -294.592     253.294     492.808
  O     -294.315     253.605     490.236
  O     -292.385     252.806     491.714
  H     -292.035     253.697     491.520
  H     -294.319     253.470     494.836
  H     -292.857     253.054     493.912
  H     -294.124     251.821     494.170
  H     -288.615     251.132     488.660
  H     -289.218     251.143     487.020
  H     -288.342     249.756     487.619

 3  4  5  6  7  8  9  10  11  12  13  23  27  28  29  30  32 0
 6-311+G(2d,p)
 ****
 34  35 0
 6-311+G(2d,p)
 ****
 1  2  14  15  16  17  18  19  20  21  22  24  25  26 0
 3-21G
 ****
 31  33  36  37  38  39  40  41  42  43  44  45  46 0
 3-21G
 ****


