%nproc=1
%NoSave
%Mem=1900MB
#P OB98/GEN NMR

erre ene a

0 1
  C      -94.161    -289.225      44.251
  O      -93.032    -288.418      44.561
  P      -91.719    -289.139      45.133
  C      -90.089    -288.630      43.182
  O      -90.857    -289.613      43.864
  C      -88.949    -289.270      42.391
  O      -88.056    -289.951      43.314
  C      -89.396    -290.303      41.351
  O      -88.477    -290.231      40.256
  C      -89.204    -291.622      42.075
  O      -89.101    -292.723      41.173
  C      -87.936    -291.317      42.868
  N      -86.399    -295.954      44.373
  C      -86.409    -295.361      43.162
  N      -86.832    -294.122      42.837
  C      -87.286    -293.477      43.927
  C      -87.372    -293.966      45.219
  C      -86.895    -295.272      45.432
  N      -86.876    -295.874      46.668
  N      -87.920    -293.019      46.060
  C      -88.160    -291.979      45.291
  N      -87.771    -292.202      44.000
  O      -92.299    -290.510      45.724
  O      -90.973    -288.372      46.170
  H      -88.900    -293.523      41.692
  H      -92.233    -290.507      46.698
  H      -86.018    -295.959      42.342
  H      -88.613    -291.052      45.615
  H      -87.033    -291.390      42.246
  H      -90.056    -291.809      42.740
  H      -90.422    -290.163      40.995
  H      -88.370    -288.471      41.913
  H      -89.662    -287.944      43.918
  H      -86.395    -296.754      46.761
  H      -87.065    -295.311      47.489
  H      -90.740    -288.059      42.512
  P      -89.086    -289.878      38.817
  C      -88.516    -287.420      38.221
  O      -89.427    -288.316      38.830
  O      -90.523    -290.583      38.842
  O      -88.260    -290.358      37.670
  H      -90.797    -290.815      37.937
  H      -89.075    -286.587      37.789
  H      -87.933    -287.904      37.431
  H      -87.831    -287.033      38.983
  H      -94.952    -288.606      43.883
  H      -94.488    -289.735      45.133
  H      -93.892    -289.942      43.504

 3  4  5  6  7  8  9  10  11  12  22  25  29  30  31  32 0
 6-311+G(2d,p)
 ****
 33  36  37 0
 6-311+G(2d,p)
 ****
 1  2  13  14  15  16  17  18  19  20  21  23  24  26 0
 3-21G
 ****
 27  28  34  35  38  39  40  41  42  43  44  45  46  47  48 0
 3-21G
 ****


