%nproc=1
%NoSave
%Mem=1900MB
#P OB98/GEN NMR

erre ene a

0 1
  C      438.338    -109.972     148.736
  O      437.838    -108.681     148.451
  H      439.199    -109.873     149.401
  H      438.662    -110.463     147.815
  H      437.581    -110.582     149.235
  P      436.477    -108.546     147.617
  C      435.249    -106.610     148.802
  O      436.035    -107.005     147.684
  C      434.849    -105.143     148.658
  O      435.913    -104.286     149.133
  C      434.585    -104.714     147.220
  O      433.323    -105.177     146.772
  C      434.702    -103.204     147.347
  O      433.487    -102.632     147.860
  C      435.856    -103.062     148.362
  N      437.140    -102.773     147.733
  C      437.368    -101.446     147.367
  O      436.542    -100.551     147.523
  N      438.584    -101.191     146.784
  C      439.517    -102.124     146.433
  O      440.549    -101.852     145.832
  C      439.208    -103.508     146.819
  C      438.056    -103.765     147.443
  O      435.407    -109.526     147.964
  O      436.950    -108.714     146.093
  H      433.670    -101.678     147.998
  H      436.700    -109.600     145.772
  H      438.762    -100.243     146.498
  H      439.933    -104.275     146.572
  H      437.810    -104.782     147.730
  H      435.633    -102.255     149.077
  H      434.901    -102.723     146.388
  H      435.384    -105.078     146.566
  H      433.966    -104.964     149.288
  H      435.842    -106.739     149.714
  H      434.363    -107.251     148.858
  P      433.155    -105.709     145.272
  C      431.090    -107.050     146.016
  O      431.620    -106.125     145.070
  O      434.152    -106.735     144.841
  O      433.290    -104.383     144.381
  H      434.051    -104.473     143.779
  H      430.065    -107.252     145.782
  H      431.156    -106.632     146.999
  H      431.651    -107.961     145.977

 6  7  8  9  10  11  12  13  14  15  16  26  31  32  33  34  35 0
 6-311+G(2d,p)
 ****
 36  37 0
 6-311+G(2d,p)
 ****
 1  2  3  4  5  17  18  19  20  21  22  23  24  25 0
 3-21G
 ****
 27  28  29  30  38  39  40  41  42  43  44  45 0
 3-21G
 ****


