%nproc=1
%NoSave
%Mem=1900MB
#P OB98/GEN NMR

erre ene a

0 1
  C     -807.375    -566.800    -127.411
  O     -806.177    -566.810    -128.180
  H     -807.106    -566.813    -126.348
  H     -807.976    -567.686    -127.632
  H     -807.954    -565.895    -127.615
  P     -806.312    -566.798    -129.778
  C     -803.788    -566.463    -130.233
  O     -804.907    -567.335    -130.345
  C     -802.525    -567.262    -129.934
  O     -802.407    -567.513    -128.526
  C     -802.474    -568.619    -130.630
  O     -802.055    -568.468    -131.978
  C     -801.450    -569.332    -129.752
  O     -800.124    -568.883    -130.090
  C     -801.849    -568.855    -128.350
  N     -802.753    -573.403    -126.309
  C     -801.638    -572.931    -126.979
  N     -800.626    -573.815    -127.161
  N     -801.523    -571.716    -127.439
  C     -802.630    -570.963    -127.238
  C     -803.814    -571.330    -126.617
  C     -803.898    -572.670    -126.063
  O     -804.872    -573.119    -125.461
  N     -804.747    -570.317    -126.672
  C     -804.115    -569.337    -127.298
  N     -802.843    -569.678    -127.676
  O     -806.756    -565.510    -130.393
  O     -807.326    -568.003    -130.098
  H     -800.160    -567.909    -130.112
  H     -808.249    -567.682    -130.147
  H     -802.786    -574.361    -125.993
  H     -804.536    -568.348    -127.492
  H     -800.986    -568.763    -127.690
  H     -801.466    -570.415    -129.882
  H     -800.774    -574.816    -127.083
  H     -803.430    -569.152    -130.554
  H     -799.821    -573.508    -127.682
  H     -801.656    -566.643    -130.222
  H     -804.010    -565.757    -129.416
  H     -803.654    -565.903    -131.172
  P     -802.784    -569.272    -133.153
  C     -800.479    -569.494    -134.311
  O     -801.628    -570.170    -133.829
  O     -803.551    -568.419    -134.119
  O     -803.694    -570.370    -132.415
  H     -804.591    -570.036    -132.179
  H     -799.798    -570.204    -134.731
  H     -800.003    -568.978    -133.503
  H     -800.769    -568.790    -135.062

 6  7  8  9  10  11  12  13  14  15  26  29  33  34 0
 6-311+G(2d,p)
 ****
 36  38  39  40  41 0
 6-311+G(2d,p)
 ****
 1  2  3  4  5  16  17  18  19  20  21  22  23  24  25 0
 3-21G
 ****
 27  28  30  31  32  35  37  42  43  44  45  46  47 0
 3-21G
 ****
 48  49 0
 3-21G
 ****


