%nproc=1
%NoSave
%Mem=1900MB
#P OB98/GEN NMR

erre ene a

0 1
  C        8.190    -691.751     -53.255
  O        8.650    -692.575     -52.201
  P        9.764    -691.935     -51.216
  C       11.956    -691.925     -52.642
  O       10.830    -691.201     -52.160
  C       13.143    -690.977     -52.814
  O       12.782    -689.863     -53.651
  C       13.662    -690.392     -51.509
  O       14.516    -691.299     -50.852
  C       14.374    -689.132     -52.012
  O       15.688    -689.450     -52.510
  C       13.445    -688.672     -53.143
  N       12.477    -683.718     -52.735
  C       13.665    -684.374     -53.025
  N       14.734    -683.590     -53.288
  N       13.790    -685.674     -53.056
  C       12.633    -686.334     -52.763
  C       11.417    -685.796     -52.443
  C       11.272    -684.357     -52.461
  O       10.233    -683.724     -52.308
  N       10.487    -686.773     -52.181
  C       11.149    -687.901     -52.375
  N       12.453    -687.691     -52.746
  O       10.540    -693.228     -50.669
  O        9.223    -691.077     -50.111
  H       16.196    -689.892     -51.797
  H       10.212    -693.474     -49.785
  H       12.448    -682.719     -52.740
  H       10.721    -688.891     -52.284
  H       14.004    -688.234     -53.979
  H       14.508    -688.391     -51.216
  H       14.722    -682.583     -53.255
  H       12.820    -690.101     -50.861
  H       15.620    -684.060     -53.497
  H       13.948    -691.539     -53.326
  H       11.699    -692.379     -53.614
  H       12.202    -692.735     -51.945
  P       14.789    -691.063     -49.280
  C       17.293    -690.385     -49.287
  O       15.953    -689.965     -49.169
  O       15.494    -692.430     -48.825
  O       13.557    -690.790     -48.483
  H       15.215    -692.652     -47.918
  H       17.876    -689.562     -49.716
  H       17.390    -691.260     -49.951
  H       17.681    -690.633     -48.305
  H        7.462    -692.282     -53.831
  H        9.014    -691.481     -53.882
  H        7.746    -690.866     -52.848

 3  4  5  6  7  8  9  10  11  12  23  26  30  31 0
 6-311+G(2d,p)
 ****
 33  35  36  37  38 0
 6-311+G(2d,p)
 ****
 1  2  13  14  15  16  17  18  19  20  21  22  24  25 0
 3-21G
 ****
 27  28  29  32  34  39  40  41  42  43  44  45  46  47  48  49 0
 3-21G
 ****


