%nproc=1
%NoSave
%Mem=1900MB
#P OB98/GEN NMR

erre ene a

0 1
  C       27.462      36.274     -16.334
  O       26.096      35.945     -16.484
  H       27.653      36.507     -15.283
  H       27.700      37.154     -16.937
  H       28.097      35.435     -16.630
  P       25.647      35.372     -17.914
  C       25.471      37.782     -18.860
  O       26.040      36.489     -18.996
  C       25.490      38.511     -20.200
  O       26.845      38.856     -20.565
  C       24.929      37.699     -21.363
  O       23.510      37.762     -21.415
  C       25.555      38.429     -22.540
  O       24.841      39.658     -22.785
  C       26.963      38.730     -22.010
  N       30.275      37.048     -25.459
  C       29.426      38.138     -25.501
  N       29.456      38.881     -26.628
  N       28.615      38.468     -24.530
  C       28.683      37.628     -23.470
  C       29.484      36.519     -23.309
  C       30.380      36.170     -24.387
  O       31.169      35.230     -24.392
  N       29.280      35.926     -22.092
  C       28.344      36.660     -21.524
  N       27.943      37.703     -22.322
  O       24.046      35.458     -17.862
  O       26.105      33.987     -18.221
  H       23.941      39.410     -23.063
  H       23.675      34.694     -18.342
  H       30.870      36.832     -26.239
  H       27.928      36.483     -20.543
  H       27.359      39.677     -22.392
  H       25.519      37.849     -23.462
  H       30.020      38.653     -27.432
  H       25.289      36.665     -21.342
  H       28.868      39.703     -26.669
  H       24.934      39.450     -20.080
  H       26.050      38.355     -18.129
  H       24.442      37.682     -18.500
  P       22.705      36.372     -21.439
  C       22.806      36.463     -24.033
  O       23.048      35.701     -22.855
  O       21.184      36.839     -21.611
  O       22.897      35.510     -20.239
  H       20.582      36.145     -21.281
  H       23.081      35.888     -24.892
  H       23.388      37.360     -24.003
  H       21.767      36.713     -24.089

 6  7  8  9  10  11  12  13  14  15  26  29  33  34 0
 6-311+G(2d,p)
 ****
 36  38  39  40  41 0
 6-311+G(2d,p)
 ****
 1  2  3  4  5  16  17  18  19  20  21  22  23  24  25 0
 3-21G
 ****
 27  28  30  31  32  35  37  42  43  44  45  46  47 0
 3-21G
 ****
 48  49 0
 3-21G
 ****


