%nproc=1
%NoSave
%Mem=1900MB
#P OB98/GEN NMR

erre ene a

0 1
  C     -518.836    -851.905    -704.338
  O     -517.554    -851.520    -703.868
  P     -516.427    -852.650    -703.755
  C     -514.646    -850.764    -703.908
  O     -515.099    -851.923    -703.222
  C     -513.297    -850.312    -703.342
  O     -512.308    -851.348    -703.491
  C     -512.706    -849.101    -704.049
  O     -513.275    -847.881    -703.584
  C     -511.251    -849.200    -703.632
  O     -511.078    -848.685    -702.299
  C     -511.015    -850.718    -703.650
  N     -506.638    -851.153    -706.157
  C     -506.879    -850.819    -704.846
  N     -505.789    -850.488    -704.097
  N     -508.059    -850.800    -704.286
  C     -509.057    -851.143    -705.144
  C     -508.954    -851.492    -706.476
  C     -507.629    -851.494    -707.075
  O     -507.369    -851.727    -708.245
  N     -510.171    -851.773    -707.020
  C     -511.026    -851.597    -706.023
  N     -510.397    -851.171    -704.877
  O     -516.078    -852.979    -705.281
  O     -516.842    -853.875    -702.997
  H     -510.123    -848.748    -702.096
  H     -515.608    -853.835    -705.343
  H     -505.711    -851.150    -706.533
  H     -512.090    -851.753    -706.089
  H     -510.382    -851.048    -702.810
  H     -510.576    -848.631    -704.277
  H     -504.860    -850.420    -704.482
  H     -512.776    -849.193    -705.133
  H     -505.938    -850.184    -703.145
  H     -513.425    -850.119    -702.268
  H     -515.382    -849.963    -703.788
  H     -514.554    -850.994    -704.981
  P     -513.587    -846.761    -704.691
  C     -514.865    -845.698    -702.693
  O     -514.116    -845.489    -703.872
  O     -514.899    -847.331    -705.418
  O     -512.480    -846.514    -705.648
  H     -514.954    -847.001    -706.328
  H     -514.907    -844.761    -702.133
  H     -514.386    -846.460    -702.065
  H     -515.879    -846.010    -702.941
  H     -519.479    -851.050    -704.360
  H     -519.248    -852.645    -703.684
  H     -518.747    -852.310    -705.324

 3  4  5  6  7  8  9  10  11  12  23  26  30  31 0
 6-311+G(2d,p)
 ****
 33  35  36  37  38 0
 6-311+G(2d,p)
 ****
 1  2  13  14  15  16  17  18  19  20  21  22  24  25 0
 3-21G
 ****
 27  28  29  32  34  39  40  41  42  43  44  45  46  47  48  49 0
 3-21G
 ****


