%nproc=1
%NoSave
%Mem=1900MB
#P OB98/GEN NMR

erre ene a

0 1
  C      -44.934     -67.399     -51.226
  O      -45.193     -66.183     -50.554
  H      -43.852     -67.544     -51.279
  H      -45.330     -67.360     -52.243
  H      -45.374     -68.242     -50.687
  P      -46.710     -65.802     -50.204
  C      -46.242     -63.549     -51.369
  O      -47.143     -64.637     -51.214
  C      -46.152     -63.158     -52.842
  O      -45.687     -64.277     -53.628
  C      -47.485     -62.749     -53.453
  O      -47.853     -61.443     -53.055
  C      -47.179     -62.901     -54.934
  O      -46.471     -61.757     -55.433
  C      -46.279     -64.156     -54.941
  N      -47.002     -65.372     -55.309
  C      -47.506     -65.426     -56.604
  O      -47.397     -64.504     -57.411
  N      -48.174     -66.575     -56.936
  C      -48.477     -67.599     -56.086
  O      -49.157     -68.567     -56.411
  C      -47.940     -67.476     -54.724
  C      -47.237     -66.388     -54.403
  O      -46.992     -65.529     -48.765
  O      -47.545     -67.063     -50.733
  H      -46.227     -61.965     -56.356
  H      -47.828     -67.606     -49.974
  H      -48.559     -66.628     -57.865
  H      -48.147     -68.275     -54.025
  H      -46.839     -66.277     -53.402
  H      -45.450     -64.025     -55.648
  H      -48.083     -63.005     -55.534
  H      -48.262     -63.471     -53.177
  H      -45.414     -62.349     -52.938
  H      -45.254     -63.857     -51.012
  H      -46.593     -62.707     -50.763
  P      -49.271     -61.190     -52.359
  C      -49.971     -59.777     -54.388
  O      -50.327     -60.842     -53.514
  O      -49.258     -60.241     -51.208
  O      -49.726     -62.649     -51.884
  H      -49.833     -62.655     -50.914
  H      -50.746     -59.636     -55.113
  H      -49.055     -60.016     -54.887
  H      -49.845     -58.878     -53.822

 6  7  8  9  10  11  12  13  14  15  16  26  31  32  33  34  35 0
 6-311+G(2d,p)
 ****
 36  37 0
 6-311+G(2d,p)
 ****
 1  2  3  4  5  17  18  19  20  21  22  23  24  25 0
 3-21G
 ****
 27  28  29  30  38  39  40  41  42  43  44  45 0
 3-21G
 ****


