%nproc=1
%NoSave
%Mem=1900MB
#P OB98/GEN NMR

erre ene a

0 1
  C     1186.420    -191.029    -296.248
  O     1185.769    -190.717    -295.021
  P     1184.178    -190.481    -295.068
  C     1184.449    -188.985    -292.952
  O     1183.907    -189.109    -294.251
  C     1184.891    -187.545    -292.695
  O     1186.079    -187.240    -293.454
  C     1183.878    -186.479    -293.119
  O     1182.875    -186.290    -292.133
  C     1184.752    -185.255    -293.218
  O     1185.003    -184.693    -291.910
  C     1186.067    -185.822    -293.781
  N     1187.037    -182.512    -297.497
  C     1187.217    -182.391    -296.111
  N     1187.676    -181.208    -295.673
  N     1186.981    -183.353    -295.273
  C     1186.533    -184.481    -295.857
  C     1186.327    -184.721    -297.185
  C     1186.575    -183.648    -298.136
  O     1186.382    -183.684    -299.352
  N     1185.869    -186.020    -297.410
  C     1185.812    -186.546    -296.208
  N     1186.148    -185.654    -295.221
  O     1183.609    -191.595    -294.088
  O     1183.563    -190.562    -296.431
  H     1185.604    -185.294    -291.438
  H     1182.660    -191.715    -294.222
  H     1187.224    -181.711    -298.105
  H     1185.500    -187.569    -295.992
  H     1186.960    -185.367    -293.331
  H     1184.321    -184.434    -293.824
  H     1187.810    -180.410    -296.279
  H     1183.446    -186.710    -294.104
  H     1187.743    -181.065    -294.675
  H     1185.139    -187.436    -291.625
  H     1185.302    -189.672    -292.830
  H     1183.686    -189.264    -292.211
  P     1181.459    -185.713    -292.679
  C     1180.742    -184.890    -290.313
  O     1181.079    -184.528    -291.636
  O     1180.436    -186.909    -292.305
  O     1181.441    -185.352    -294.129
  H     1179.653    -186.868    -292.920
  H     1180.772    -183.988    -289.690
  H     1181.469    -185.604    -289.911
  H     1179.751    -185.310    -290.254
  H     1187.467    -191.159    -296.073
  H     1186.272    -190.230    -296.944
  H     1186.010    -191.932    -296.650

 3  4  5  6  7  8  9  10  11  12  23  26  30  31 0
 6-311+G(2d,p)
 ****
 33  35  36  37  38 0
 6-311+G(2d,p)
 ****
 1  2  13  14  15  16  17  18  19  20  21  22  24  25 0
 3-21G
 ****
 27  28  29  32  34  39  40  41  42  43  44  45  46  47  48  49 0
 3-21G
 ****


