%nproc=1
%NoSave
%Mem=1900MB
#P OB98/GEN NMR

erre ene a

0 1
  C      553.310     463.972    -213.126
  O      553.678     464.683    -211.962
  H      552.735     464.640    -213.775
  H      552.683     463.112    -212.866
  H      554.199     463.641    -213.667
  P      554.475     463.909    -210.808
  C      556.927     463.794    -211.610
  O      555.975     464.489    -210.813
  C      558.302     463.810    -210.927
  O      559.117     462.799    -211.563
  C      559.013     465.166    -211.074
  O      559.445     465.708    -209.830
  C      560.073     464.891    -212.134
  O      561.208     465.735    -212.060
  C      560.371     463.404    -211.947
  N      560.911     462.752    -213.145
  C      562.256     462.391    -213.125
  O      563.018     462.552    -212.174
  N      562.725     461.803    -214.270
  C      562.011     461.552    -215.399
  O      562.482     461.014    -216.393
  C      560.596     461.973    -215.366
  C      560.118     462.550    -214.261
  O      554.382     462.418    -210.846
  O      553.868     464.505    -209.450
  H      561.615     465.609    -211.181
  H      553.235     463.865    -209.066
  H      563.695     461.523    -214.261
  H      559.998     461.804    -216.254
  H      559.086     462.874    -214.197
  H      561.084     463.249    -211.138
  H      559.624     465.050    -213.124
  H      558.321     465.928    -211.457
  H      558.179     463.530    -209.876
  H      556.979     464.291    -212.586
  H      556.601     462.758    -211.759
  P      558.921     467.083    -209.201
  C      557.283     465.907    -207.529
  O      558.378     466.785    -207.728
  O      558.050     467.905    -210.093
  O      560.275     467.916    -208.950
  H      560.053     468.861    -209.072
  H      557.069     465.836    -206.483
  H      557.529     464.938    -207.909
  H      556.425     466.285    -208.044

 6  7  8  9  10  11  12  13  14  15  16  26  31  32  33  34  35 0
 6-311+G(2d,p)
 ****
 36  37 0
 6-311+G(2d,p)
 ****
 1  2  3  4  5  17  18  19  20  21  22  23  24  25 0
 3-21G
 ****
 27  28  29  30  38  39  40  41  42  43  44  45 0
 3-21G
 ****


