%nproc=1
%NoSave
%Mem=1900MB
#P OB98/GEN NMR

erre ene a

0 1
  C     -413.014    -843.877    -139.016
  O     -411.724    -844.479    -139.030
  P     -410.741    -844.340    -137.792
  C     -409.906    -846.766    -137.870
  O     -409.540    -845.399    -137.982
  C     -409.169    -847.630    -138.917
  O     -409.532    -847.167    -140.242
  C     -407.646    -847.575    -138.787
  O     -407.157    -848.901    -139.078
  C     -407.249    -846.622    -139.892
  O     -405.882    -846.780    -140.304
  C     -408.288    -846.921    -140.955
  N     -408.435    -845.861    -141.935
  C     -407.365    -845.652    -142.814
  O     -406.307    -846.270    -142.667
  N     -407.523    -844.743    -143.830
  C     -408.563    -843.988    -143.860
  N     -408.720    -843.154    -144.935
  C     -409.612    -844.013    -142.808
  C     -409.502    -844.977    -141.903
  O     -411.390    -844.382    -136.448
  O     -410.001    -842.922    -138.019
  H     -410.098    -842.373    -137.209
  H     -405.708    -847.729    -140.454
  H     -410.390    -843.269    -142.788
  H     -410.216    -845.103    -141.101
  H     -408.040    -847.852    -141.484
  H     -407.363    -845.579    -139.541
  H     -407.304    -847.275    -137.806
  H     -409.515    -848.662    -138.814
  H     -408.011    -843.200    -145.652
  H     -410.988    -846.840    -138.037
  H     -409.626    -842.762    -145.186
  H     -409.711    -847.132    -136.862
  P     -406.143    -849.583    -138.036
  C     -406.717    -851.914    -139.053
  O     -405.703    -851.009    -138.634
  O     -407.152    -850.017    -136.845
  O     -405.067    -848.713    -137.465
  H     -406.645    -850.079    -136.007
  H     -406.217    -852.827    -139.364
  H     -407.250    -851.489    -139.904
  H     -407.393    -852.112    -138.248
  H     -413.515    -844.087    -139.938
  H     -412.912    -842.818    -138.898
  H     -413.584    -844.273    -138.202

 3  4  5  6  7  8  9  10  11  12  13  24  27  28  29  30  32 0
 6-311+G(2d,p)
 ****
 34  35 0
 6-311+G(2d,p)
 ****
 1  2  14  15  16  17  18  19  20  21  22  23  25  26 0
 3-21G
 ****
 31  33  36  37  38  39  40  41  42  43  44  45  46 0
 3-21G
 ****


