%nproc=1
%NoSave
%Mem=1900MB
#P OB98/GEN NMR

erre ene a

0 1
  C     -267.050    -585.692      72.896
  O     -267.327    -585.896      71.521
  P     -268.383    -584.969      70.745
  C     -268.139    -586.681      68.837
  O     -269.043    -585.928      69.637
  C     -268.897    -587.744      68.046
  O     -269.259    -588.811      68.951
  C     -270.210    -587.293      67.412
  O     -270.068    -586.659      66.147
  C     -270.907    -588.632      67.223
  O     -270.377    -589.301      66.059
  C     -270.509    -589.386      68.492
  N     -274.294    -591.806      70.943
  C     -273.457    -592.199      69.955
  N     -272.485    -591.489      69.341
  C     -272.393    -590.263      69.877
  C     -273.170    -589.724      70.886
  C     -274.161    -590.553      71.431
  N     -274.997    -590.157      72.456
  N     -272.787    -588.422      71.154
  C     -271.789    -588.191      70.327
  N     -271.507    -589.274      69.538
  O     -267.823    -583.686      70.236
  O     -269.570    -584.759      71.789
  H     -270.555    -588.724      65.293
  H     -270.128    -584.005      71.517
  H     -273.586    -593.223      69.608
  H     -271.244    -587.261      70.255
  H     -270.330    -590.452      68.312
  H     -271.986    -588.532      67.064
  H     -270.793    -586.675      68.099
  H     -268.219    -588.159      67.292
  H     -267.416    -587.173      69.502
  H     -275.590    -590.857      72.864
  H     -274.794    -589.289      72.924
  H     -267.587    -586.010      68.170
  P     -270.746    -585.210      65.972
  C     -271.066    -585.556      63.397
  O     -271.658    -585.321      64.654
  O     -269.791    -584.073      65.996
  O     -271.816    -585.178      67.161
  H     -272.553    -585.803      67.073
  H     -271.858    -585.756      62.667
  H     -270.403    -586.420      63.432
  H     -270.513    -584.673      63.069
  H     -266.325    -586.407      73.224
  H     -267.950    -585.811      73.463
  H     -266.666    -584.703      73.040

 3  4  5  6  7  8  9  10  11  12  22  25  29  30  31  32 0
 6-311+G(2d,p)
 ****
 33  36  37 0
 6-311+G(2d,p)
 ****
 1  2  13  14  15  16  17  18  19  20  21  23  24  26 0
 3-21G
 ****
 27  28  34  35  38  39  40  41  42  43  44  45  46  47  48 0
 3-21G
 ****


