%nproc=1
%NoSave
%Mem=1900MB
#P OB98/GEN NMR

erre ene a

0 1
  C      228.442     -18.089      10.093
  O      227.613     -19.049       9.467
  P      228.149     -20.526       9.172
  C      228.104     -20.386       6.614
  O      228.929     -20.486       7.767
  C      228.937     -20.175       5.350
  O      229.768     -18.994       5.522
  C      229.868     -21.341       4.996
  O      229.934     -21.397       3.566
  C      231.207     -20.883       5.550
  O      232.311     -21.550       4.952
  C      231.128     -19.391       5.247
  N      236.013     -18.739       6.606
  C      235.416     -19.651       5.810
  N      234.105     -19.775       5.518
  C      233.389     -18.825       6.141
  C      233.854     -17.847       7.006
  C      235.242     -17.810       7.221
  N      235.872     -16.866       8.002
  N      232.800     -17.094       7.492
  C      231.726     -17.609       6.929
  N      232.039     -18.613       6.057
  O      227.130     -21.611       9.286
  O      229.331     -20.729      10.234
  H      232.220     -22.506       5.120
  H      229.035     -21.333      10.945
  H      236.077     -20.373       5.341
  H      230.707     -17.296       7.117
  H      231.339     -19.170       4.194
  H      231.242     -21.071       6.629
  H      229.551     -22.305       5.406
  H      228.249     -19.968       4.520
  H      227.434     -19.531       6.752
  H      236.881     -16.853       7.980
  H      235.366     -16.020       8.252
  H      227.492     -21.291       6.516
  P      230.181     -22.800       2.831
  C      232.691     -22.313       2.700
  O      231.695     -23.219       3.143
  O      229.786     -22.844       1.392
  O      229.329     -23.836       3.711
  H      229.185     -24.656       3.197
  H      232.874     -22.472       1.634
  H      233.615     -22.505       3.254
  H      232.386     -21.278       2.866
  H      227.905     -17.170      10.201
  H      229.313     -17.924       9.493
  H      228.736     -18.446      11.058

 3  4  5  6  7  8  9  10  11  12  22  25  29  30  31  32 0
 6-311+G(2d,p)
 ****
 33  36  37 0
 6-311+G(2d,p)
 ****
 1  2  13  14  15  16  17  18  19  20  21  23  24  26 0
 3-21G
 ****
 27  28  34  35  38  39  40  41  42  43  44  45  46  47  48 0
 3-21G
 ****


