%nproc=1
%NoSave
%Mem=1900MB
#P OB98/GEN NMR

erre ene a

0 1
  C      132.372     434.205     217.076
  O      132.480     434.331     218.480
  H      133.104     434.866     216.604
  H      131.371     434.493     216.743
  H      132.579     433.175     216.772
  P      131.408     433.509     219.353
  C      132.892     431.361     219.281
  O      131.668     431.984     218.921
  C      132.611     430.051     220.003
  O      133.823     429.275     220.139
  C      132.076     430.221     221.421
  O      130.695     430.543     221.456
  C      132.347     428.838     221.982
  O      131.372     427.909     221.478
  C      133.748     428.544     221.396
  N      134.839     428.942     222.286
  C      135.795     427.961     222.581
  O      135.694     426.825     222.118
  N      136.829     428.280     223.430
  C      136.910     429.472     223.932
  N      137.945     429.729     224.776
  C      135.938     430.540     223.633
  C      134.939     430.208     222.814
  O      130.013     433.839     218.645
  O      131.430     433.762     220.822
  H      131.387     427.131     222.066
  H      129.299     433.279     219.034
  H      136.043     431.517     224.080
  H      134.186     430.944     222.547
  H      133.857     427.478     221.159
  H      132.292     428.802     223.073
  H      132.663     430.951     221.989
  H      131.918     429.464     219.381
  H      138.562     428.961     225.012
  H      133.447     432.043     219.936
  H      137.986     430.562     225.350
  H      133.486     431.163     218.384
  P      130.027     430.801     222.892
  C      131.520     432.897     223.253
  O      131.089     431.639     223.756
  O      130.061     429.354     223.571
  O      128.640     431.371     222.854
  H      129.250     429.192     224.093
  H      132.221     433.332     223.934
  H      130.676     433.547     223.147
  H      131.986     432.759     222.300

 6  7  8  9  10  11  12  13  14  15  16  26  30  31  32  33  35 0
 6-311+G(2d,p)
 ****
 37  38 0
 6-311+G(2d,p)
 ****
 1  2  3  4  5  17  18  19  20  21  22  23  24  25 0
 3-21G
 ****
 27  28  29  34  36  39  40  41  42  43  44  45  46 0
 3-21G
 ****


