%nproc=1
%NoSave
%Mem=1900MB
#P OB98/GEN NMR

erre ene a

0 1
  C      155.904    -117.745     841.607
  O      157.117    -117.437     842.268
  H      155.070    -117.489     842.265
  H      155.860    -118.815     841.388
  H      155.814    -117.169     840.680
  P      158.471    -117.660     841.433
  C      158.501    -120.228     841.814
  O      159.157    -118.986     842.029
  C      158.639    -121.131     843.038
  O      160.043    -121.479     843.212
  C      158.156    -120.501     844.349
  O      157.576    -121.532     845.155
  C      159.453    -120.056     845.013
  O      159.323    -119.890     846.421
  C      160.372    -121.200     844.589
  N      163.971    -120.322     847.995
  C      162.652    -120.698     848.162
  N      162.222    -120.876     849.429
  N      161.823    -120.895     847.170
  C      162.402    -120.720     845.949
  C      163.685    -120.341     845.657
  C      164.584    -120.112     846.767
  O      165.757    -119.753     846.683
  N      163.875    -120.250     844.298
  C      162.700    -120.566     843.777
  N      161.775    -120.861     844.740
  O      159.406    -116.478     841.969
  O      158.321    -117.630     839.949
  H      160.218    -119.718     846.785
  H      159.332    -115.698     841.386
  H      164.565    -120.175     848.796
  H      162.472    -120.595     842.718
  H      160.202    -122.115     845.170
  H      159.792    -119.102     844.583
  H      162.814    -120.784     850.245
  H      157.439    -119.680     844.223
  H      161.266    -121.194     849.572
  H      158.108    -122.073     842.835
  H      158.955    -120.722     840.948
  H      157.444    -120.043     841.603
  P      156.113    -122.055     844.769
  C      155.145    -120.170     846.281
  O      155.081    -121.530     845.877
  O      156.198    -123.628     845.078
  O      155.721    -121.796     843.346
  H      155.582    -124.114     844.507
  H      154.395    -119.982     847.021
  H      154.977    -119.538     845.434
  H      156.111    -119.965     846.693

 6  7  8  9  10  11  12  13  14  15  26  29  33  34 0
 6-311+G(2d,p)
 ****
 36  38  39  40  41 0
 6-311+G(2d,p)
 ****
 1  2  3  4  5  16  17  18  19  20  21  22  23  24  25 0
 3-21G
 ****
 27  28  30  31  32  35  37  42  43  44  45  46  47 0
 3-21G
 ****
 48  49 0
 3-21G
 ****


