%nproc=1
%NoSave
%Mem=1900MB
#P OB98/GEN NMR

erre ene a

0 1
  C     -511.869      30.055    -632.429
  O     -510.596      29.775    -632.971
  H     -512.221      31.009    -632.829
  H     -511.811      30.133    -631.339
  H     -512.583      29.274    -632.708
  P     -509.838      28.438    -632.505
  C     -508.345      27.858    -630.478
  O     -509.370      28.700    -630.988
  C     -508.050      28.218    -629.018
  O     -507.361      29.475    -628.935
  C     -509.299      28.345    -628.140
  O     -509.745      27.063    -627.716
  C     -508.733      29.173    -626.993
  O     -507.950      28.333    -626.128
  C     -507.824      30.160    -627.741
  N     -509.387      34.747    -626.211
  C     -508.888      33.686    -625.478
  N     -508.831      33.864    -624.134
  N     -508.499      32.548    -625.999
  C     -508.683      32.497    -627.333
  C     -509.173      33.468    -628.175
  C     -509.537      34.748    -627.592
  O     -509.957      35.719    -628.217
  N     -509.301      33.014    -629.468
  C     -508.831      31.785    -629.418
  N     -508.451      31.412    -628.144
  O     -508.737      27.956    -633.400
  O     -511.007      27.359    -632.347
  H     -508.522      27.583    -625.866
  H     -511.131      26.850    -633.170
  H     -509.678      35.597    -625.753
  H     -508.740      31.115    -630.269
  H     -506.937      30.430    -627.155
  H     -509.522      29.631    -626.384
  H     -509.253      34.656    -623.665
  H     -510.083      28.911    -628.646
  H     -508.532      33.081    -623.573
  H     -507.373      27.447    -628.618
  H     -507.453      28.001    -631.098
  H     -508.651      26.806    -630.545
  P     -511.290      26.789    -627.367
  C     -512.516      26.400    -625.123
  O     -511.409      26.987    -625.778
  O     -511.826      25.497    -627.882
  O     -512.057      28.083    -627.924
  H     -512.284      28.012    -628.885
  H     -512.465      26.613    -624.076
  H     -512.499      25.341    -625.273
  H     -513.423      26.802    -625.525

 6  7  8  9  10  11  12  13  14  15  26  29  33  34 0
 6-311+G(2d,p)
 ****
 36  38  39  40  41 0
 6-311+G(2d,p)
 ****
 1  2  3  4  5  16  17  18  19  20  21  22  23  24  25 0
 3-21G
 ****
 27  28  30  31  32  35  37  42  43  44  45  46  47 0
 3-21G
 ****
 48  49 0
 3-21G
 ****


