%nproc=1
%NoSave
%Mem=1900MB
#P OB98/GEN NMR

erre ene a

0 1
  C       16.122    -171.524     -42.448
  O       16.245    -170.167     -42.078
  H       16.345    -171.618     -43.514
  H       15.101    -171.871     -42.274
  H       16.826    -172.147     -41.889
  P       16.169    -169.779     -40.524
  C       13.651    -169.531     -41.023
  O       14.769    -169.031     -40.301
  C       12.358    -168.991     -40.419
  O       11.227    -169.399     -41.218
  C       12.073    -169.497     -39.009
  O       12.889    -168.836     -38.061
  C       10.585    -169.196     -38.897
  O       10.365    -167.812     -38.588
  C       10.096    -169.528     -40.327
  N        9.493    -170.855     -40.436
  C        8.410    -171.114     -39.601
  O        7.989    -170.304     -38.779
  N        7.838    -172.352     -39.731
  C        8.286    -173.360     -40.536
  O        7.768    -174.472     -40.577
  C        9.454    -173.042     -41.370
  C        9.993    -171.825     -41.284
  O       17.358    -169.064     -39.974
  O       15.942    -171.188     -39.797
  H        9.399    -167.694     -38.506
  H       16.786    -171.508     -39.428
  H        7.061    -172.563     -39.126
  H        9.839    -173.819     -42.016
  H       10.859    -171.573     -41.887
  H        9.355    -168.789     -40.654
  H       10.098    -169.775     -38.113
  H       12.217    -170.582     -38.959
  H       12.405    -167.894     -40.437
  H       13.655    -170.625     -40.963
  H       13.744    -169.232     -42.072
  P       13.557    -169.642     -36.851
  C       11.345    -169.625     -35.560
  O       12.728    -169.295     -35.521
  O       15.036    -169.486     -36.722
  O       13.161    -171.166     -37.138
  H       13.941    -171.656     -37.464
  H       10.888    -169.355     -34.631
  H       11.234    -170.677     -35.720
  H       10.873    -169.091     -36.358

 6  7  8  9  10  11  12  13  14  15  16  26  31  32  33  34  35 0
 6-311+G(2d,p)
 ****
 36  37 0
 6-311+G(2d,p)
 ****
 1  2  3  4  5  17  18  19  20  21  22  23  24  25 0
 3-21G
 ****
 27  28  29  30  38  39  40  41  42  43  44  45 0
 3-21G
 ****


