%nproc=1
%NoSave
%Mem=1900MB
#P OB98/GEN NMR

erre ene a

0 1
  C      -51.033      76.635      60.512
  O      -52.244      76.050      61.007
  P      -52.279      74.708      61.888
  C      -53.543      73.449      60.027
  O      -53.502      73.787      61.406
  C      -54.901      72.863      59.623
  O      -54.905      71.418      59.834
  C      -56.099      73.442      60.398
  O      -57.173      73.562      59.460
  C      -56.370      72.348      61.420
  O      -57.661      72.415      61.996
  C      -56.119      71.112      60.552
  N      -55.987      69.853      61.276
  C      -57.145      69.088      61.469
  O      -58.246      69.485      61.094
  N      -57.031      67.877      62.111
  C      -55.875      67.468      62.530
  N      -55.834      66.257      63.148
  C      -54.638      68.248      62.366
  C      -54.765      69.414      61.736
  O      -52.273      74.960      63.361
  O      -50.980      73.879      61.455
  H      -50.623      73.413      62.234
  H      -57.807      71.595      62.502
  H      -53.693      67.867      62.724
  H      -53.895      70.035      61.550
  H      -56.918      71.023      59.807
  H      -55.639      72.435      62.229
  H      -55.902      74.424      60.838
  H      -55.031      73.023      58.546
  H      -56.704      65.745      63.233
  H      -52.765      72.705      59.829
  H      -54.988      65.839      63.506
  H      -53.321      74.343      59.433
  P      -57.465      74.978      58.767
  C      -59.959      75.283      59.453
  O      -59.028      75.035      58.419
  O      -56.814      74.774      57.314
  O      -56.870      76.177      59.433
  H      -56.566      75.643      56.950
  H      -60.692      76.012      59.097
  H      -59.484      75.676      60.355
  H      -60.476      74.351      59.697
  H      -51.265      77.519      59.955
  H      -50.532      75.935      59.877
  H      -50.397      76.888      61.334

 3  4  5  6  7  8  9  10  11  12  13  24  27  28  29  30  32 0
 6-311+G(2d,p)
 ****
 34  35 0
 6-311+G(2d,p)
 ****
 1  2  14  15  16  17  18  19  20  21  22  23  25  26 0
 3-21G
 ****
 31  33  36  37  38  39  40  41  42  43  44  45  46 0
 3-21G
 ****


