%nproc=1
%NoSave
%Mem=1900MB
#P OB98/GEN NMR

erre ene a

0 1
  C      -83.285     508.049     204.875
  O      -83.843     507.005     205.662
  P      -82.859     506.236     206.676
  C      -83.031     503.939     205.479
  O      -82.203     505.046     205.825
  C      -82.197     502.813     204.873
  O      -81.549     503.280     203.683
  C      -81.076     502.296     205.769
  O      -81.550     501.384     206.739
  C      -80.181     501.618     204.749
  O      -80.690     500.297     204.471
  C      -80.323     502.521     203.515
  N      -75.463     503.022     202.186
  C      -76.258     501.896     202.228
  N      -75.691     500.738     201.824
  N      -77.511     501.897     202.619
  C      -77.960     503.130     202.954
  C      -77.266     504.321     202.956
  C      -75.876     504.294     202.562
  O      -75.109     505.256     202.575
  N      -78.072     505.362     203.345
  C      -79.258     504.812     203.530
  N      -79.228     503.457     203.332
  O      -83.875     505.466     207.651
  O      -81.917     507.106     207.430
  H      -80.491     499.744     205.250
  H      -83.447     505.302     208.513
  H      -74.521     502.963     201.861
  H      -80.154     505.351     203.806
  H      -80.439     501.925     202.598
  H      -79.150     501.491     205.102
  H      -74.767     500.694     201.392
  H      -80.533     503.135     206.232
  H      -76.269     499.912     201.810
  H      -82.873     501.999     204.599
  H      -83.784     504.252     204.757
  H      -83.537     503.589     206.388
  P      -80.589     501.118     208.004
  C      -80.509     498.551     207.619
  O      -79.792     499.770     207.658
  O      -81.611     500.678     209.150
  O      -79.760     502.290     208.403
  H      -81.238     500.882     210.033
  H      -81.519     498.683     207.214
  H      -80.571     498.134     208.630
  H      -79.969     497.843     206.983
  H      -84.045     508.470     204.251
  H      -82.500     507.655     204.264
  H      -82.890     508.808     205.518

 3  4  5  6  7  8  9  10  11  12  23  26  30  31  33  0
 6-311+G(2d,p)
 ****
 35  36  37  38 0
 6-311+G(2d,p)
 ****
 1  2  13  14  15  16  17  18  19  20  21  22  24  25  27  28  29 0
 3-21G
 ****
 32  34  39  40  41  42  43  44  45  46  47  48  49 0
 3-21G
 ****


