%nproc=1
%NoSave
%Mem=1900MB
#P OB98/GEN NMR

erre ene a

0 1
  C     -397.183    -938.615    -166.468
  O     -398.284    -938.676    -167.366
  P     -398.232    -939.586    -168.664
  C     -400.584    -940.612    -168.726
  O     -399.714    -939.646    -169.298
  C     -402.059    -940.172    -168.841
  O     -402.258    -938.990    -168.025
  C     -402.487    -939.846    -170.272
  O     -403.844    -940.317    -170.416
  C     -402.460    -938.335    -170.296
  O     -403.279    -937.776    -171.335
  C     -402.875    -937.989    -168.880
  N     -402.506    -936.644    -168.479
  C     -403.177    -935.585    -169.104
  O     -403.955    -935.803    -170.034
  N     -402.938    -934.309    -168.660
  C     -401.998    -934.090    -167.810
  N     -401.850    -932.814    -167.334
  C     -401.104    -935.159    -167.302
  C     -401.425    -936.401    -167.648
  O     -397.584    -940.921    -168.489
  O     -397.419    -938.701    -169.748
  H     -396.674    -939.234    -170.103
  H     -404.195    -938.093    -171.214
  H     -400.238    -934.917    -166.706
  H     -400.854    -937.259    -167.321
  H     -403.962    -938.103    -168.760
  H     -401.424    -937.988    -170.478
  H     -401.868    -940.308    -171.029
  H     -402.688    -940.972    -168.438
  H     -402.508    -932.126    -167.667
  H     -400.319    -940.721    -167.669
  H     -401.355    -932.618    -166.464
  H     -400.434    -941.586    -169.197
  P     -404.187    -941.280    -171.656
  C     -406.062    -942.184    -170.088
  O     -405.654    -941.891    -171.419
  O     -403.238    -942.554    -171.345
  O     -403.868    -940.764    -173.026
  H     -403.049    -943.023    -172.185
  H     -407.048    -942.640    -170.150
  H     -406.130    -941.256    -169.520
  H     -405.370    -942.856    -169.625
  H     -397.416    -937.950    -165.663
  H     -396.319    -938.257    -166.987
  H     -396.986    -939.592    -166.078

 3  4  5  6  7  8  9  10  11  12  13  24  27  28  29  30  32 0
 6-311+G(2d,p)
 ****
 34  35 0
 6-311+G(2d,p)
 ****
 1  2  14  15  16  17  18  19  20  21  22  23  25  26 0
 3-21G
 ****
 31  33  36  37  38  39  40  41  42  43  44  45  46 0
 3-21G
 ****


