%nproc=1
%NoSave
%Mem=1900MB
#P OB98/GEN NMR

erre ene a

0 1
  C     -185.124      87.804      54.745
  O     -186.147      86.916      55.149
  H     -184.162      87.407      55.079
  H     -185.278      88.787      55.198
  H     -185.109      87.896      53.655
  P     -187.646      87.309      54.732
  C     -188.380      88.326      57.012
  O     -188.056      88.562      55.647
  C     -189.336      89.406      57.507
  O     -188.682      90.696      57.462
  C     -190.590      89.558      56.655
  O     -191.553      88.558      56.930
  C     -191.039      90.957      57.043
  O     -191.797      90.947      58.259
  C     -189.709      91.692      57.249
  N     -190.686      96.130      54.925
  C     -191.121      95.608      56.091
  N     -190.803      94.420      56.648
  C     -189.916      93.762      55.884
  C     -189.379      94.170      54.674
  C     -189.798      95.421      54.192
  N     -189.373      95.943      52.992
  N     -188.531      93.205      54.169
  C     -188.549      92.233      55.060
  N     -189.367      92.527      56.115
  O     -188.515      86.104      55.329
  O     -187.871      87.487      53.269
  H     -192.100      91.864      58.401
  H     -188.729      85.473      54.615
  H     -191.829      96.219      56.646
  H     -187.995      91.304      54.984
  H     -189.725      92.337      58.137
  H     -191.666      91.393      56.264
  H     -190.324      89.555      55.591
  H     -189.597      89.192      58.551
  H     -187.463      88.352      57.611
  H     -188.836      87.335      57.102
  H     -189.765      96.814      52.675
  H     -188.799      95.372      52.384
  P     -192.738      88.355      55.871
  C     -194.715      88.333      57.572
  O     -194.059      89.004      56.502
  O     -193.029      86.780      55.916
  O     -192.422      88.821      54.488
  H     -193.270      86.461      55.025
  H     -195.573      88.897      57.874
  H     -194.042      88.237      58.399
  H     -195.023      87.361      57.248

 6  7  8  9  10  11  12  13  14  15  25  28  32  33  34  35 0
 6-311+G(2d,p)
 ****
 36  37  40 0
 6-311+G(2d,p)
 ****
 1  2  3  4  5  16  17  18  19  20  21  22  23  24 0
 3-21G
 ****
 26  27  29  30  31  38  39 41  42  43  44  45  46  47  48 0
 3-21G
 ****


