%nproc=1
%NoSave
%Mem=1900MB
#P OB98/GEN NMR

erre ene a

0 1
  C     -221.869    -120.565     742.397
  O     -223.187    -120.069     742.153
  P     -224.337    -121.156     741.884
  C     -224.178    -121.435     739.305
  O     -223.926    -122.014     740.582
  C     -223.373    -122.151     738.205
  O     -223.729    -123.562     738.128
  C     -223.594    -121.567     736.798
  O     -222.368    -121.698     736.078
  C     -224.623    -122.503     736.196
  O     -224.644    -122.420     734.774
  C     -224.146    -123.832     736.780
  N     -226.573    -127.248     733.846
  C     -225.574    -126.382     733.587
  N     -224.996    -125.489     734.420
  C     -225.541    -125.580     735.652
  C     -226.564    -126.401     736.062
  C     -227.105    -127.275     735.095
  N     -228.148    -128.140     735.347
  N     -226.877    -126.176     737.391
  C     -226.044    -125.220     737.764
  N     -225.196    -124.849     736.757
  O     -225.569    -120.265     741.365
  O     -224.708    -121.959     743.092
  H     -225.229    -123.122     734.437
  H     -226.259    -120.221     742.064
  H     -225.189    -126.404     732.569
  H     -226.022    -124.756     738.747
  H     -223.290    -124.247     736.233
  H     -225.629    -122.245     736.571
  H     -223.924    -120.520     736.785
  H     -222.311    -122.099     738.455
  H     -223.889    -120.370     739.314
  H     -228.488    -128.695     734.597
  H     -228.582    -128.133     736.260
  H     -225.250    -121.461     739.098
  P     -221.274    -120.546     736.299
  C     -222.055    -119.090     734.287
  O     -221.911    -119.202     735.696
  O     -220.118    -120.926     735.252
  O     -220.756    -120.455     737.698
  H     -219.257    -120.570     735.560
  H     -223.016    -118.622     734.065
  H     -222.026    -120.068     733.788
  H     -221.253    -118.469     733.884
  H     -221.203    -119.743     742.560
  H     -221.538    -121.130     741.551
  H     -221.879    -121.193     743.263

 3  4  5  6  7  8  9  10  11  12  22  25  29  30  31  32 0
 6-311+G(2d,p)
 ****
 33  36  37 0
 6-311+G(2d,p)
 ****
 1  2  13  14  15  16  17  18  19  20  21  23  24  26 0
 3-21G
 ****
 27  28  34  35  38  39  40  41  42  43  44  45  46  47  48 0
 3-21G
 ****


