%nproc=1
%NoSave
%Mem=1900MB
#P OB98/GEN NMR

erre ene a

0 1
  C     -582.756     292.202    -891.770
  O     -583.501     292.206    -893.000
  P     -584.262     293.570    -893.390
  C     -583.108     293.788    -895.720
  O     -583.353     294.374    -894.450
  C     -582.720     294.838    -896.790
  O     -583.836     295.718    -897.050
  C     -581.554     295.755    -896.340
  O     -580.838     296.134    -897.500
  C     -582.276     296.953    -895.780
  O     -581.398     298.087    -895.680
  C     -583.427     297.078    -896.740
  N     -585.281     301.712    -895.990
  C     -584.083     301.301    -896.560
  N     -583.272     302.286    -897.010
  N     -583.694     300.082    -896.660
  C     -584.621     299.203    -896.200
  C     -585.854     299.468    -895.600
  C     -586.224     300.866    -895.470
  O     -587.284     301.281    -894.980
  N     -586.520     298.319    -895.240
  C     -585.676     297.340    -895.570
  N     -584.537     297.831    -896.200
  O     -584.142     294.442    -892.060
  O     -585.682     293.377    -893.810
  H     -581.948     298.845    -895.380
  H     -585.023     294.503    -891.640
  H     -585.503     302.709    -895.940
  H     -585.845     296.298    -895.420
  H     -583.141     297.566    -897.680
  H     -582.631     296.729    -894.750
  H     -583.510     303.274    -897.020
  H     -580.863     295.271    -895.620
  H     -582.400     302.021    -897.460
  H     -582.448     294.311    -897.710
  H     -584.013     293.237    -896.060
  H     -582.334     293.004    -895.610
  P     -579.242     296.241    -897.380
  C     -578.894     294.680    -899.420
  O     -578.645     294.902    -898.050
  O     -578.937     296.067    -895.840
  O     -578.649     297.542    -897.920
  H     -578.112     296.462    -895.580
  H     -577.980     294.910    -900.000
  H     -579.721     295.279    -899.810
  H     -579.145     293.614    -899.570
  H     -582.303     291.243    -891.631
  H     -583.416     292.407    -890.953
  H     -581.995     292.954    -891.811

 3  4  5  6  7  8  9  10  11  12  23  26  30  31 0
 6-311+G(2d,p)
 ****
 33  35  36  37  38 0
 6-311+G(2d,p)
 ****
 1  2  13  14  15  16  17  18  19  20  21  22  24  25 0
 3-21G
 ****
 27  28  29  32  34  39  40  41  42  43  44  45  46  47  48  49 0
 3-21G
 ****


