%nproc=1
%NoSave
%Mem=1900MB
#P OB98/GEN NMR

erre ene a

0 1
  C      197.507     336.445     411.186
  O      198.324     335.437     411.747
  H      196.938     336.922     411.989
  H      196.805     336.009     410.470
  H      198.116     337.209     410.691
  P      199.380     334.685     410.803
  C      197.968     332.525     410.715
  O      198.563     333.585     409.973
  C      196.489     332.403     410.348
  O      195.908     333.717     410.175
  C      196.234     331.662     409.044
  O      196.380     330.266     409.208
  C      194.822     332.123     408.721
  O      193.853     331.369     409.466
  C      194.855     333.595     409.190
  N      195.051     334.539     408.087
  C      193.961     334.748     407.249
  O      192.887     334.157     407.379
  N      194.157     335.636     406.225
  C      195.337     336.236     405.903
  O      195.484     336.958     404.920
  C      196.464     335.963     406.808
  C      196.270     335.141     407.843
  O      200.610     334.181     411.484
  O      199.738     335.782     409.690
  H      194.014     330.428     409.262
  H      200.623     336.149     409.869
  H      193.384     335.788     405.598
  H      197.415     336.432     406.594
  H      197.090     334.922     408.520
  H      193.916     333.854     409.700
  H      194.576     332.002     407.667
  H      196.913     332.033     408.262
  H      195.968     331.913     411.182
  H      198.062     332.747     411.784
  H      198.499     331.592     410.494
  P      197.454     329.468     408.328
  C      195.471     328.031     407.543
  O      196.666     328.715     407.154
  O      198.400     328.616     409.103
  O      198.242     330.621     407.545
  H      199.188     330.591     407.789
  H      195.030     327.567     406.685
  H      194.780     328.731     407.964
  H      195.709     327.283     408.270

 6  7  8  9  10  11  12  13  14  15  16  26  31  32  33  34  35 0
 6-311+G(2d,p)
 ****
 36  37 0
 6-311+G(2d,p)
 ****
 1  2  3  4  5  17  18  19  20  21  22  23  24  25 0
 3-21G
 ****
 27  28  29  30  38  39  40  41  42  43  44  45 0
 3-21G
 ****


