%nproc=1
%NoSave
%Mem=1900MB
#P OB98/GEN NMR

erre ene a

0 1
  C       63.068     421.835      23.194
  O       63.465     421.013      22.105
  P       64.944     420.416      22.028
  C       65.864     422.494      20.709
  O       65.699     421.094      20.797
  C       66.826     422.809      19.561
  O       68.185     422.506      19.951
  C       66.504     421.993      18.313
  O       65.671     422.730      17.427
  C       67.878     421.699      17.741
  O       68.359     422.826      16.983
  C       68.718     421.523      19.024
  N       68.694     420.205      19.698
  C       69.185     419.085      19.031
  O       69.674     419.118      17.906
  N       69.065     417.894      19.704
  C       68.558     417.737      20.962
  O       68.234     416.659      21.450
  C       68.315     418.979      21.705
  C       68.372     420.132      21.045
  O       64.699     418.913      21.532
  O       65.726     420.464      23.302
  H       69.077     422.502      16.408
  H       64.723     418.294      22.285
  H       69.288     417.059      19.172
  H       68.046     418.905      22.753
  H       68.157     421.060      21.567
  H       69.771     421.770      18.844
  H       67.843     420.862      17.045
  H       66.031     421.043      18.590
  H       66.779     423.882      19.337
  H       66.254     422.885      21.653
  H       64.895     422.972      20.529
  P       64.547     421.970      16.581
  C       66.346     421.209      14.922
  O       65.125     421.900      15.089
  O       63.163     422.513      16.708
  O       64.649     420.458      17.113
  H       63.957     420.299      17.791
  H       66.535     421.081      13.853
  H       66.302     420.225      15.396
  H       67.164     421.794      15.355
  H       62.049     422.133      23.063
  H       63.691     422.704      23.231
  H       63.165     421.287      24.108

 3  4  5  6  7  8  9  10  11  12  13  23  28  29  30  31  32 0
 6-311+G(2d,p)
 ****
 33  34 0
 6-311+G(2d,p)
 ****
 1  2  14  15  16  17  18  19  20  21  22  24  25  26  27 0
 3-21G
 ****
 35  36  37  38  39  40  41  42  43  44  45 0
 3-21G
 ****


