%nproc=1
%NoSave
%Mem=1900MB
#P OB98/GEN NMR

erre ene a

0 1
  C     -946.366     252.983     508.329
  O     -945.518     251.838     508.379
  P     -944.074     251.929     507.677
  C     -942.697     251.215     509.767
  O     -943.069     250.932     508.426
  C     -942.160     249.959     510.461
  O     -943.228     249.017     510.718
  C     -941.134     249.196     509.642
  O     -939.841     249.757     509.767
  C     -941.189     247.820     510.315
  O     -940.413     247.843     511.529
  C     -942.680     247.677     510.635
  N     -946.191     244.011     509.894
  C     -945.624     244.507     511.023
  N     -944.688     245.474     511.139
  C     -944.343     245.944     509.925
  C     -944.832     245.537     508.703
  C     -945.801     244.516     508.711
  N     -946.363     244.019     507.551
  N     -944.226     246.234     507.678
  C     -943.408     247.082     508.281
  N     -943.434     246.931     509.643
  O     -943.547     253.377     508.128
  O     -944.114     251.805     506.193
  H     -940.329     246.914     511.826
  H     -943.016     253.781     507.409
  H     -945.977     244.069     511.950
  H     -942.771     247.795     507.784
  H     -942.849     247.185     511.607
  H     -940.776     247.033     509.688
  H     -941.458     249.094     508.593
  H     -941.720     250.259     511.418
  H     -943.554     251.623     510.327
  H     -947.070     243.303     507.644
  H     -946.096     244.409     506.656
  H     -941.928     252.009     509.761
  P     -938.993     249.949     508.423
  C     -939.933     252.158     507.397
  O     -938.926     251.540     508.188
  O     -940.001     249.443     507.291
  O     -937.689     249.228     508.392
  H     -939.490     249.052     506.541
  H     -939.909     253.232     507.588
  H     -940.923     251.779     507.665
  H     -939.741     251.985     506.331
  H     -947.284     252.769     508.835
  H     -946.571     253.231     507.308
  H     -945.879     253.808     508.806

 3  4  5  6  7  8  9  10  11  12  22  25  29  30  31  32 0
 6-311+G(2d,p)
 ****
 33  36  37 0
 6-311+G(2d,p)
 ****
 1  2  13  14  15  16  17  18  19  20  21  23  24  26 0
 3-21G
 ****
 27  28  34  35  38  39  40  41  42  43  44  45  46  47  48 0
 3-21G
 ****


