%nproc=1
%NoSave
%Mem=1900MB
#P OB98/GEN NMR

erre ene a

0 1
  C     -243.807     544.068     -19.192
  O     -244.039     543.810     -20.562
  P     -245.515     543.481     -21.092
  C     -246.266     545.834     -20.354
  O     -246.493     544.431     -20.246
  C     -247.563     546.571     -20.691
  O     -247.954     546.312     -22.054
  C     -248.752     546.162     -19.833
  O     -248.667     546.761     -18.551
  C     -249.911     546.653     -20.688
  O     -250.152     548.054     -20.487
  C     -249.393     546.388     -22.118
  N     -249.972     545.185     -22.706
  C     -251.329     545.266     -23.046
  O     -251.969     546.293     -22.817
  N     -251.937     544.163     -23.595
  C     -251.253     543.067     -23.758
  N     -251.916     542.006     -24.295
  C     -249.835     542.936     -23.383
  C     -249.264     544.021     -22.866
  O     -245.879     542.035     -21.105
  O     -245.535     544.154     -22.547
  H     -249.284     548.495     -20.576
  H     -245.010     543.624     -23.196
  H     -249.313     542.003     -23.531
  H     -248.225     544.009     -22.559
  H     -249.630     547.235     -22.776
  H     -250.843     546.130     -20.453
  H     -248.790     545.070     -19.751
  H     -247.377     547.650     -20.592
  H     -252.897     542.128     -24.510
  H     -245.536     546.002     -21.153
  H     -251.494     541.103     -24.433
  H     -245.840     546.206     -19.416
  P     -249.555     546.191     -17.346
  C     -247.615     545.160     -16.024
  O     -248.805     544.909     -16.747
  O     -251.003     545.992     -17.657
  O     -249.369     547.288     -16.197
  H     -250.239     547.475     -15.791
  H     -247.393     544.287     -15.403
  H     -247.724     546.035     -15.378
  H     -246.790     545.319     -16.720
  H     -242.767     544.265     -19.037
  H     -244.099     543.216     -18.614
  H     -244.380     544.919     -18.887

 3  4  5  6  7  8  9  10  11  12  13  23  27  28  29  30  32 0
 6-311+G(2d,p)
 ****
 34  35 0
 6-311+G(2d,p)
 ****
 1  2  14  15  16  17  18  19  20  21  22  24  25  26 0
 3-21G
 ****
 31  33  36  37  38  39  40  41  42  43  44  45  46 0
 3-21G
 ****


