%nproc=1
%NoSave
%Mem=1900MB
#P OB98/GEN NMR

erre ene a

0 1
  C      459.749     792.066    -400.877
  O      459.022     790.961    -401.386
  H      460.019     792.716    -401.712
  H      460.660     791.720    -400.389
  H      459.135     792.628    -400.174
  P      458.510     789.887    -400.309
  C      457.140     788.660    -402.151
  O      458.136     788.562    -401.137
  C      457.520     787.770    -403.330
  O      457.665     786.401    -402.884
  C      456.474     787.725    -404.434
  O      456.519     788.873    -405.262
  C      456.860     786.444    -405.155
  O      457.922     786.659    -406.089
  C      457.336     785.545    -404.005
  N      455.888     780.663    -404.398
  C      456.995     781.318    -404.835
  N      457.312     782.622    -404.674
  C      456.360     783.258    -403.966
  C      455.184     782.723    -403.457
  C      454.960     781.355    -403.697
  N      453.829     780.695    -403.281
  N      454.441     783.696    -402.822
  C      455.158     784.793    -402.931
  N      456.325     784.577    -403.611
  O      457.086     790.474    -399.864
  O      459.412     789.675    -399.142
  H      458.199     785.772    -406.396
  H      457.179     790.940    -399.013
  H      457.713     780.718    -405.379
  H      454.871     785.773    -402.552
  H      458.241     784.985    -404.264
  H      456.006     786.041    -405.703
  H      455.471     787.607    -404.002
  H      458.490     788.103    -403.725
  H      457.068     789.699    -402.491
  H      456.178     788.352    -401.731
  H      453.702     779.732    -403.552
  H      453.080     781.222    -402.861
  P      455.140     789.415    -405.868
  C      456.511     791.068    -407.345
  O      455.470     790.105    -407.277
  O      454.767     790.657    -404.919
  O      454.041     788.406    -405.915
  H      453.795     790.700    -404.799
  H      456.600     791.427    -408.349
  H      457.434     790.618    -407.044
  H      456.284     791.885    -406.693

 6  7  8  9  10  11  12  13  14  15  25  28  32  33  34  35 0
 6-311+G(2d,p)
 ****
 36  37  40 0
 6-311+G(2d,p)
 ****
 1  2  3  4  5  16  17  18  19  20  21  22  23  24 0
 3-21G
 ****
 26  27  29  30  31  38  39 41  42  43  44  45  46  47  48 0
 3-21G
 ****


