%nproc=1
%NoSave
%Mem=1900MB
#P OB98/GEN NMR

erre ene a

0 1
  C     -103.315     259.776     -21.336
  O     -102.447     260.379     -22.272
  H     -103.883     260.562     -20.831
  H     -102.746     259.218     -20.585
  H     -104.018     259.109     -21.845
  P     -101.413     259.441     -23.067
  C      -99.124     258.393     -22.443
  O     -100.221     259.188     -22.016
  C      -98.019     258.406     -21.389
  O      -98.531     258.010     -20.097
  C      -96.865     257.444     -21.657
  O      -95.995     257.883     -22.688
  C      -96.194     257.447     -20.293
  O      -95.448     258.668     -20.125
  C      -97.427     257.420     -19.353
  N      -97.774     256.071     -18.908
  C      -96.916     255.474     -17.972
  O      -95.923     256.080     -17.564
  N      -97.178     254.195     -17.553
  C      -98.203     253.555     -18.036
  N      -98.388     252.269     -17.619
  C      -99.140     254.147     -19.007
  C      -98.868     255.390     -19.399
  O     -100.984     259.923     -24.415
  O     -102.122     258.004     -23.101
  H      -94.934     258.573     -19.302
  H     -101.526     257.390     -23.594
  H      -99.967     253.568     -19.381
  H      -99.505     255.891     -20.124
  H      -97.258     258.052     -18.473
  H      -95.496     256.617     -20.151
  H      -97.238     256.435     -21.862
  H      -97.668     259.444     -21.292
  H      -97.700     251.882     -16.984
  H      -98.764     258.792     -23.396
  H      -98.975     251.628     -18.144
  H      -99.447     257.355     -22.591
  P      -95.641     256.844     -23.862
  C      -94.276     254.623     -23.970
  O      -94.561     255.819     -23.262
  O      -94.788     257.736     -24.879
  O      -96.812     256.182     -24.523
  H      -95.356     258.109     -25.585
  H      -93.540     254.059     -23.436
  H      -93.903     254.865     -24.943
  H      -95.170     254.043     -24.065

 6  7  8  9  10  11  12  13  14  15  16  26  30  31  32  33  35 0
 6-311+G(2d,p)
 ****
 37  38 0
 6-311+G(2d,p)
 ****
 1  2  3  4  5  17  18  19  20  21  22  23  24  25 0
 3-21G
 ****
 27  28  29  34  36  39  40  41  42  43  44  45  46 0
 3-21G
 ****


