%nproc=1
%NoSave
%Mem=1900MB
#P OB98/GEN NMR

erre ene a

0 1
  C     -251.963    -655.645     425.779
  O     -251.970    -656.583     426.834
  P     -252.420    -658.105     426.669
  C     -254.217    -659.650     427.765
  O     -253.780    -658.329     427.489
  C     -255.012    -659.700     429.079
  O     -254.114    -659.410     430.183
  C     -256.110    -658.613     429.117
  O     -257.348    -659.060     429.664
  C     -255.420    -657.453     429.816
  O     -256.321    -656.502     430.374
  C     -254.512    -658.176     430.812
  N     -252.642    -654.352     433.587
  C     -253.886    -654.937     433.648
  N     -254.815    -654.304     434.403
  N     -254.216    -656.018     432.984
  C     -253.229    -656.476     432.170
  C     -251.950    -655.985     432.031
  C     -251.595    -654.807     432.804
  O     -250.534    -654.192     432.699
  N     -251.243    -656.664     431.077
  C     -252.105    -657.544     430.609
  N     -253.338    -657.446     431.214
  O     -251.349    -659.141     426.790
  O     -252.936    -658.120     425.136
  H     -255.791    -655.851     430.868
  H     -252.729    -659.009     424.768
  H     -252.475    -653.474     434.061
  H     -251.900    -658.255     429.809
  H     -255.050    -658.425     431.728
  H     -254.823    -656.926     429.060
  H     -254.635    -653.387     434.805
  H     -256.378    -658.308     428.100
  H     -255.786    -654.562     434.260
  H     -255.418    -660.713     429.230
  H     -253.316    -660.266     427.855
  H     -254.816    -660.044     426.942
  P     -258.616    -658.192     430.121
  C     -259.445    -657.199     432.328
  O     -258.320    -657.576     431.567
  O     -259.768    -659.261     430.428
  O     -259.094    -657.198     429.109
  H     -260.620    -658.916     430.111
  H     -259.125    -656.544     433.156
  H     -259.922    -658.083     432.755
  H     -260.163    -656.643     431.714
  H     -251.622    -654.699     426.145
  H     -252.954    -655.540     425.388
  H     -251.308    -655.985     425.004

 3  4  5  6  7  8  9  10  11  12  23  26  30  31 0
 6-311+G(2d,p)
 ****
 33  35  36  37  38 0
 6-311+G(2d,p)
 ****
 1  2  13  14  15  16  17  18  19  20  21  22  24  25 0
 3-21G
 ****
 27  28  29  32  34  39  40  41  42  43  44  45  46  47  48  49 0
 3-21G
 ****


