%nproc=1
%NoSave
%Mem=1900MB
#P OB98/GEN NMR

erre ene a

0 1
  C      -29.558     279.202     251.662
  O      -28.634     279.857     252.511
  P      -28.246     279.162     253.900
  C      -29.712     280.998     255.079
  O      -28.505     280.254     255.049
  C      -29.588     282.167     256.062
  O      -29.337     281.634     257.395
  C      -28.459     283.155     255.742
  O      -28.917     284.459     256.123
  C      -27.339     282.697     256.662
  O      -26.383     283.719     256.910
  C      -28.140     282.264     257.895
  N      -27.408     281.355     258.775
  C      -26.466     281.904     259.642
  O      -26.198     283.103     259.695
  N      -25.804     281.005     260.444
  C      -25.936     279.649     260.415
  O      -25.307     278.889     261.143
  C      -26.915     279.127     259.446
  C      -27.596     279.985     258.692
  O      -26.653     279.098     253.778
  O      -28.913     277.846     254.124
  H      -26.271     279.868     253.320
  H      -25.806     283.420     257.641
  H      -25.143     281.382     261.106
  H      -27.037     278.050     259.383
  H      -28.316     279.625     257.965
  H      -28.457     283.149     258.465
  H      -26.819     281.846     256.206
  H      -28.185     283.148     254.682
  H      -30.554     282.684     256.098
  H      -30.531     280.346     255.400
  H      -29.939     281.358     254.070
  P      -28.510     285.706     255.179
  C      -26.701     286.654     256.822
  O      -27.921     286.852     256.135
  O      -29.964     286.268     254.811
  O      -27.699     285.348     253.978
  H      -30.541     286.368     255.584
  H      -26.312     287.628     257.129
  H      -25.956     286.168     256.191
  H      -26.877     286.052     257.719
  H      -29.711     279.789     250.781
  H      -30.489     279.079     252.175
  H      -29.173     278.242     251.388

 3  4  5  6  7  8  9  10  11  12  13  24  28  29  30  31  32 0
 6-311+G(2d,p)
 ****
 33  34 0
 6-311+G(2d,p)
 ****
 1  2  14  15  16  17  18  19  20  21  22  23  25  26  27 0
 3-21G
 ****
 35  36  37  38  39  40  41  42  43  44  45 0
 3-21G
 ****


