%nproc=1
%NoSave
%Mem=1900MB
#P OB98/GEN NMR

erre ene a

0 1
  C     -331.312     542.550      78.873
  O     -330.624     542.518      80.106
  H     -332.340     542.875      79.052
  H     -331.334     541.554      78.422
  H     -330.832     543.256      78.191
  P     -329.119     541.965      80.082
  C     -329.477     540.118      81.876
  O     -329.180     540.424      80.519
  C     -329.382     538.610      82.093
  O     -330.378     537.940      81.286
  C     -328.051     538.006      81.674
  O     -327.031     538.207      82.640
  C     -328.427     536.542      81.532
  O     -328.380     535.855      82.789
  C     -329.869     536.618      80.992
  N     -329.931     536.314      79.565
  C     -330.292     535.005      79.245
  O     -330.548     534.152      80.089
  N     -330.311     534.704      77.913
  C     -329.964     535.542      76.895
  O     -329.948     535.190      75.721
  C     -329.575     536.906      77.293
  C     -329.570     537.224      78.593
  O     -328.445     542.691      81.338
  O     -328.372     542.229      78.815
  H     -327.842     543.394      81.030
  H     -327.476     535.992      83.137
  H     -330.572     533.764      77.659
  H     -329.291     537.595      76.509
  H     -329.279     538.220      78.912
  H     -330.517     535.912      81.523
  H     -327.750     536.028      80.857
  H     -327.746     538.392      80.694
  H     -329.590     538.395      83.148
  H     -330.493     540.449      82.116
  H     -328.770     540.653      82.520
  P     -325.520     538.379      82.110
  C     -324.726     536.159      83.283
  O     -324.900     536.900      82.083
  O     -324.844     539.083      83.375
  O     -325.433     539.143      80.833
  H     -325.300     538.854      84.204
  H     -324.302     535.204      83.054
  H     -325.675     536.023      83.759
  H     -324.071     536.692      83.940

 6  7  8  9  10  11  12  13  14  15  16  27  31  32  33  34  35 0
 6-311+G(2d,p)
 ****
 36  37 0
 6-311+G(2d,p)
 ****
 1  2  3  4  5  17  18  19  20  21  22  23  24  25 0
 3-21G
 ****
 26  28  29  30  38  39  40  41  42  43  44  45 0
 3-21G
 ****


