%nproc=1
%NoSave
%Mem=1900MB
#P OB98/GEN NMR

erre ene a

0 1
  C     -509.792     119.424      95.225
  O     -510.650     119.070      96.290
  H     -509.937     120.485      94.992
  H     -510.040     118.837      94.337
  H     -508.748     119.264      95.504
  P     -510.468     117.598      96.907
  C     -512.017     116.490      95.099
  O     -510.734     116.585      95.688
  C     -512.176     115.153      94.362
  O     -511.409     114.145      95.072
  C     -513.626     114.664      94.276
  O     -513.802     114.002      93.021
  C     -513.720     113.653      95.402
  O     -514.773     112.717      95.194
  C     -512.299     113.057      95.396
  N     -511.952     112.431      96.667
  C     -511.730     111.050      96.651
  O     -511.833     110.416      95.594
  N     -511.425     110.412      97.826
  C     -511.409     111.076      98.935
  N     -511.127     110.383     100.067
  C     -511.689     112.525      99.008
  C     -511.937     113.138      97.850
  O     -511.774     117.456      97.814
  O     -509.181     117.393      97.636
  H     -514.827     112.514      94.233
  H     -512.584     117.766      97.377
  H     -511.675     113.039      99.964
  H     -512.144     114.195      97.813
  H     -512.205     112.301      94.601
  H     -513.909     114.162      96.356
  H     -514.353     115.481      94.375
  H     -511.731     115.253      93.368
  H     -510.968     109.386      99.977
  H     -512.173     117.312      94.393
  H     -511.146     110.785     100.997
  H     -512.765     116.579      95.891
  P     -514.586     114.735      91.841
  C     -517.010     114.262      92.604
  O     -516.009     115.248      92.391
  O     -514.629     114.017      90.535
  O     -513.767     116.120      91.688
  H     -513.688     116.314      90.732
  H     -517.901     114.731      92.967
  H     -516.662     113.550      93.324
  H     -517.221     113.762      91.681

 6  7  8  9  10  11  12  13  14  15  16  26  30  31  32  33  35 0
 6-311+G(2d,p)
 ****
 37  38 0
 6-311+G(2d,p)
 ****
 1  2  3  4  5  17  18  19  20  21  22  23  24  25 0
 3-21G
 ****
 27  28  29  34  36  39  40  41  42  43  44  45  46 0
 3-21G
 ****


