%nproc=1
%NoSave
%Mem=1900MB
#P OB98/GEN NMR

erre ene a

0 1
  C      449.851     152.298     -21.245
  O      448.660     152.740     -20.617
  P      447.606     153.544     -21.532
  C      445.735     152.769     -19.883
  O      446.336     153.837     -20.601
  C      444.304     153.160     -19.497
  O      443.577     153.611     -20.657
  C      443.486     152.018     -18.901
  O      443.790     151.855     -17.527
  C      442.063     152.487     -19.171
  O      441.644     153.444     -18.180
  C      442.202     153.149     -20.551
  N      438.459     151.193     -23.330
  C      438.407     151.927     -22.159
  N      437.176     152.218     -21.689
  N      439.470     152.343     -21.515
  C      440.627     151.966     -22.095
  C      440.811     151.224     -23.241
  C      439.633     150.820     -23.976
  O      439.625     150.257     -25.064
  N      442.140     151.023     -23.502
  C      442.758     151.666     -22.535
  N      441.887     152.270     -21.665
  O      447.092     152.427     -22.556
  O      448.157     154.749     -22.221
  H      441.769     153.067     -17.288
  H      447.562     152.502     -23.410
  H      437.612     150.920     -23.795
  H      443.829     151.740     -22.430
  H      441.559     154.032     -20.648
  H      441.344     151.668     -19.135
  H      436.316     151.919     -22.121
  H      443.675     151.083     -19.451
  H      437.114     152.754     -20.829
  H      444.358     153.996     -18.790
  H      446.311     152.579     -18.975
  H      445.736     151.873     -20.503
  P      443.491     150.425     -16.864
  C      445.649     150.620     -15.437
  O      444.253     150.384     -15.457
  O      444.321     149.412     -17.784
  O      442.044     150.054     -16.819
  H      443.831     148.575     -17.877
  H      445.913     151.070     -14.478
  H      445.963     151.285     -16.246
  H      446.172     149.667     -15.537
  H      450.460     151.782     -20.532
  H      450.387     153.142     -21.627
  H      449.606     151.637     -22.050

 3  4  5  6  7  8  9  10  11  12  23  26  30  31 0
 6-311+G(2d,p)
 ****
 33  35  36  37  38 0
 6-311+G(2d,p)
 ****
 1  2  13  14  15  16  17  18  19  20  21  22  24  25 0
 3-21G
 ****
 27  28  29  32  34  39  40  41  42  43  44  45  46  47  48  49 0
 3-21G
 ****


