%nproc=1
%NoSave
%Mem=1900MB
#P OB98/GEN NMR

erre ene a

0 1
  C       63.685     422.997     -92.860
  O       63.897     424.360     -92.532
  P       62.615     425.334     -92.570
  C       60.759     425.723     -94.351
  O       62.110     425.376     -94.090
  C       60.212     424.901     -95.519
  O       59.952     423.549     -95.087
  C       58.900     425.408     -96.091
  O       59.098     426.553     -96.903
  C       58.434     424.165     -96.852
  O       59.128     424.064     -98.101
  C       58.871     423.031     -95.902
  N       54.650     420.146     -95.638
  C       55.483     420.430     -96.653
  N       56.572     421.228     -96.658
  C       56.777     421.748     -95.438
  C       56.001     421.569     -94.303
  C       54.888     420.724     -94.430
  N       54.037     420.436     -93.382
  N       56.510     422.293     -93.245
  C       57.577     422.885     -93.725
  N       57.792     422.583     -95.043
  O       63.257     426.777     -92.356
  O       61.562     425.022     -91.552
  H       60.060     423.847     -97.903
  H       62.653     427.357     -91.847
  H       55.244     419.949     -97.606
  H       58.232     423.535     -93.159
  H       59.246     422.160     -96.446
  H       57.358     424.178     -97.063
  H       58.195     425.644     -95.286
  H       60.986     424.873     -96.303
  H       60.698     426.791     -94.611
  H       53.185     419.940     -93.592
  H       54.137     420.980     -92.530
  H       60.167     425.558     -93.442
  P       57.802     427.410     -97.293
  C       55.565     426.573     -98.245
  O       56.976     426.438     -98.265
  O       58.416     428.486     -98.305
  O       57.048     427.972     -96.134
  H       58.979     428.064     -98.986
  H       55.138     425.897     -98.986
  H       55.284     427.602     -98.492
  H       55.182     426.312     -97.255
  H       64.612     422.466     -92.796
  H       63.301     422.925     -93.856
  H       62.982     422.571     -92.175

 3  4  5  6  7  8  9  10  11  12  22  25  29  30  31  32 0
 6-311+G(2d,p)
 ****
 33  36  37 0
 6-311+G(2d,p)
 ****
 1  2  13  14  15  16  17  18  19  20  21  23  24  26 0
 3-21G
 ****
 27  28  34  35  38  39  40  41  42  43  44  45  46  47  48 0
 3-21G
 ****


