%nproc=1
%NoSave
%Mem=1900MB
#P OB98/GEN NMR

erre ene a

0 1
  C      549.473     -41.531    -160.972
  O      549.920     -40.934    -162.174
  H      549.776     -42.583    -160.971
  H      548.386     -41.479    -160.893
  H      549.935     -41.036    -160.114
  P      549.472     -39.433    -162.503
  C      551.498     -39.260    -164.087
  O      550.094     -39.078    -163.939
  C      551.814     -40.682    -164.549
  O      551.032     -40.964    -165.743
  C      553.291     -40.906    -164.882
  O      553.654     -42.223    -164.469
  C      553.312     -40.799    -166.395
  O      554.424     -41.474    -166.952
  C      551.942     -41.373    -166.780
  N      551.526     -40.898    -168.097
  C      551.895     -41.686    -169.194
  O      552.532     -42.729    -169.021
  N      551.603     -41.245    -170.460
  C      551.032     -40.093    -170.621
  N      550.803     -39.695    -171.903
  C      550.649     -39.215    -169.498
  C      550.919     -39.672    -168.279
  O      549.736     -38.418    -161.442
  O      547.905     -39.564    -162.813
  H      555.230     -40.929    -166.830
  H      547.394     -39.437    -161.992
  H      550.184     -38.255    -169.689
  H      550.681     -39.095    -167.390
  H      551.971     -42.470    -166.792
  H      553.378     -39.744    -166.690
  H      553.953     -40.168    -164.413
  H      551.476     -41.386    -163.779
  H      551.107     -40.320    -172.643
  H      551.962     -39.080    -163.113
  H      550.410     -38.804    -172.157
  H      551.891     -38.533    -164.805
  P      554.403     -42.465    -163.069
  C      553.175     -44.663    -162.625
  O      554.450     -44.041    -162.760
  O      553.903     -41.626    -161.941
  O      555.936     -42.111    -163.390
  H      556.364     -41.765    -162.581
  H      553.306     -45.705    -162.422
  H      552.622     -44.544    -163.533
  H      552.639     -44.207    -161.819

 6  7  8  9  10  11  12  13  14  15  16  26  30  31  32  33  35 0
 6-311+G(2d,p)
 ****
 37  38 0
 6-311+G(2d,p)
 ****
 1  2  3  4  5  17  18  19  20  21  22  23  24  25 0
 3-21G
 ****
 27  28  29  34  36  39  40  41  42  43  44  45  46 0
 3-21G
 ****


