%nproc=1
%NoSave
%Mem=1900MB
#P OB98/GEN NMR

erre ene a

0 1
  C       -6.155    -117.302     119.029
  O       -4.831    -117.482     119.488
  H       -6.844    -117.603     119.822
  H       -6.345    -117.918     118.147
  H       -6.335    -116.249     118.793
  P       -3.627    -117.218     118.466
  C       -2.877    -114.933     119.414
  O       -3.478    -115.628     118.333
  C       -1.698    -114.080     118.928
  O       -2.207    -113.020     118.069
  C       -0.909    -113.407     120.064
  O        0.446    -113.271     119.620
  C       -1.588    -112.053     120.137
  O       -0.830    -111.135     120.884
  C       -1.790    -111.764     118.646
  N       -2.757    -110.705     118.408
  C       -2.279    -109.572     117.744
  O       -1.098    -109.502     117.405
  N       -3.144    -108.534     117.507
  C       -4.359    -108.593     117.955
  N       -5.160    -107.525     117.700
  C       -4.885    -109.747     118.713
  C       -4.040    -110.760     118.897
  O       -3.703    -117.951     117.169
  O       -2.320    -117.635     119.294
  H        0.113    -111.149     120.604
  H       -1.991    -118.496     118.977
  H       -5.900    -109.740     119.081
  H       -4.334    -111.651     119.443
  H       -0.840    -111.484     118.172
  H       -2.558    -112.137     120.637
  H       -0.946    -113.969     121.000
  H       -1.044    -114.705     118.308
  H       -4.755    -106.752     117.187
  H       -2.526    -115.679     120.132
  H       -6.115    -107.450     118.016
  H       -3.615    -114.291     119.907
  P        1.705    -113.467     120.594
  C        1.886    -116.030     120.366
  O        1.651    -114.930     121.241
  O        1.879    -112.367     121.591
  O        2.976    -113.539     119.620
  H        3.754    -113.176     120.082
  H        1.822    -116.945     120.918
  H        2.861    -115.941     119.935
  H        1.151    -116.031     119.589

 6  7  8  9  10  11  12  13  14  15  16  26  30  31  32  33  35 0
 6-311+G(2d,p)
 ****
 37  38 0
 6-311+G(2d,p)
 ****
 1  2  3  4  5  17  18  19  20  21  22  23  24  25 0
 3-21G
 ****
 27  28  29  34  36  39  40  41  42  43  44  45  46 0
 3-21G
 ****


