%nproc=1
%NoSave
%Mem=1900MB
#P OB98/GEN NMR

erre ene a

0 1
  C     -364.785      67.725     288.604
  O     -365.912      68.545     288.288
  P     -366.997      68.842     289.429
  C     -368.993      68.695     287.800
  O     -368.285      69.504     288.734
  C     -369.426      69.521     286.588
  O     -368.435      69.484     285.534
  C     -370.710      69.023     285.950
  O     -371.840      69.363     286.734
  C     -370.646      69.685     284.586
  O     -371.115      71.046     284.649
  C     -369.128      69.666     284.280
  N     -368.749      68.648     283.312
  C     -368.284      69.120     282.082
  O     -368.253      70.330     281.849
  N     -367.885      68.198     281.134
  C     -367.949      66.940     281.394
  N     -367.542      66.075     280.425
  C     -368.448      66.399     282.678
  C     -368.833      67.299     283.579
  O     -366.492      69.549     290.637
  O     -367.528      67.370     289.799
  H     -370.897      71.444     283.785
  H     -367.802      67.359     290.737
  H     -368.474      65.330     282.854
  H     -369.214      66.998     284.550
  H     -368.804      70.640     283.895
  H     -371.267      69.170     283.843
  H     -370.665      67.924     285.831
  H     -369.556      70.559     286.911
  H     -367.213      66.464     279.554
  H     -369.873      68.257     288.284
  H     -367.504      65.073     280.556
  H     -368.353      67.859     287.501
  P     -372.656      68.171     287.428
  C     -375.062      68.914     286.801
  O     -374.103      68.734     287.826
  O     -371.924      68.010     288.849
  O     -372.653      66.886     286.671
  H     -371.934      67.069     289.120
  H     -376.057      68.991     287.250
  H     -375.061      68.071     286.102
  H     -374.850      69.842     286.258
  H     -364.162      67.626     287.739
  H     -365.123      66.758     288.913
  H     -364.226      68.177     289.396

 3  4  5  6  7  8  9  10  11  12  13  23  27  28  29  30  32 0
 6-311+G(2d,p)
 ****
 34  35 0
 6-311+G(2d,p)
 ****
 1  2  14  15  16  17  18  19  20  21  22  24  25  26 0
 3-21G
 ****
 31  33  36  37  38  39  40  41  42  43  44  45  46 0
 3-21G
 ****


