%nproc=1
%NoSave
%Mem=1900MB
#P OB98/GEN NMR

erre ene a

0 1
  C     1788.276    -507.657     832.765
  O     1789.519    -508.323     832.482
  P     1790.833    -507.400     832.284
  C     1792.139    -508.663     834.131
  O     1791.669    -507.398     833.667
  C     1792.959    -508.522     835.429
  O     1794.175    -507.742     835.169
  C     1792.156    -507.768     836.517
  O     1792.542    -508.248     837.827
  C     1792.713    -506.334     836.390
  O     1792.484    -505.586     837.596
  C     1794.183    -506.606     836.065
  N     1798.391    -503.691     835.997
  C     1798.080    -504.786     836.667
  N     1796.958    -505.535     836.625
  C     1796.089    -505.030     835.753
  C     1796.251    -503.890     834.957
  C     1797.467    -503.203     835.097
  N     1797.759    -502.041     834.409
  N     1795.137    -503.665     834.178
  C     1794.294    -504.622     834.521
  N     1794.843    -505.482     835.455
  O     1790.619    -506.065     831.703
  O     1791.762    -508.315     831.345
  H     1792.807    -506.106     838.333
  H     1792.169    -507.748     830.659
  H     1798.848    -505.148     837.375
  H     1793.286    -504.715     834.133
  H     1794.747    -506.904     836.962
  H     1792.212    -505.839     835.568
  H     1791.077    -507.809     836.423
  H     1793.262    -509.504     835.778
  H     1792.761    -509.127     833.372
  H     1798.594    -501.552     834.653
  H     1797.054    -501.584     833.877
  H     1791.273    -509.341     834.267
  P     1791.811    -509.612     838.275
  C     1793.880    -510.926     839.209
  O     1792.902    -510.739     838.167
  O     1790.497    -509.867     837.565
  O     1791.639    -509.367     839.862
  H     1792.442    -509.104     840.317
  H     1794.447    -511.849     838.991
  H     1793.378    -511.027     840.164
  H     1794.560    -510.069     839.207
  H     1787.498    -508.384     832.871
  H     1788.036    -506.993     831.961
  H     1788.369    -507.099     833.673

 3  4  5  6  7  8  9  10  11  12  22  25  29  30  31  32 0
 6-311+G(2d,p)
 ****
 33  36  37 0
 6-311+G(2d,p)
 ****
 1  2  13  14  15  16  17  18  19  20  21  23  24  26 0
 3-21G
 ****
 27  28  34  35  38  39  40  41  42  43  44  45  46  47  48 0
 3-21G
 ****


