%nproc=1
%NoSave
%Mem=1900MB
#P OB98/GEN NMR

erre ene a

0 1
  C     -140.609    -148.895     453.850
  O     -140.507    -149.265     452.490
  P     -139.966    -148.283     451.351
  C     -137.962    -149.788     450.668
  O     -139.174    -149.164     450.265
  C     -137.645    -151.059     449.863
  O     -138.677    -152.040     450.088
  C     -137.663    -150.750     448.363
  O     -136.520    -150.205     447.735
  C     -138.215    -152.010     447.708
  O     -137.186    -152.854     447.185
  C     -138.956    -152.710     448.848
  N     -142.884    -155.582     447.439
  C     -141.600    -155.967     447.766
  N     -141.283    -157.257     447.502
  N     -140.711    -155.159     448.284
  C     -141.149    -153.882     448.401
  C     -142.400    -153.384     448.122
  C     -143.384    -154.298     447.591
  O     -144.509    -153.978     447.206
  N     -142.460    -152.026     448.294
  C     -141.233    -151.690     448.636
  N     -140.393    -152.779     448.674
  O     -139.360    -146.996     451.809
  O     -141.330    -147.923     450.569
  H     -137.610    -153.636     446.794
  H     -141.254    -147.002     450.257
  H     -143.503    -156.234     446.969
  H     -140.895    -150.681     448.833
  H     -138.598    -153.741     448.966
  H     -138.862    -151.753     446.860
  H     -141.893    -157.861     446.973
  H     -138.438    -149.990     448.206
  H     -140.308    -157.523     447.571
  H     -136.718    -151.521     450.206
  H     -138.051    -150.018     451.733
  H     -137.134    -149.082     450.560
  P     -136.499    -149.309     446.411
  C     -137.232    -146.889     446.798
  O     -136.150    -147.803     446.822
  O     -138.038    -149.213     445.975
  O     -135.678    -149.863     445.290
  H     -138.099    -149.001     445.026
  H     -136.840    -145.871     446.793
  H     -137.850    -147.030     447.692
  H     -137.850    -147.040     445.907
  H     -140.996    -149.717     454.415
  H     -141.268    -148.057     453.943
  H     -139.641    -148.631     454.221

 3  4  5  6  7  8  9  10  11  12  23  26  30  31 0
 6-311+G(2d,p)
 ****
 33  35  36  37  38 0
 6-311+G(2d,p)
 ****
 1  2  13  14  15  16  17  18  19  20  21  22  24  25 0
 3-21G
 ****
 27  28  29  32  34  39  40  41  42  43  44  45  46  47  48  49 0
 3-21G
 ****


