%nproc=1
%NoSave
%Mem=1900MB
#P OB98/GEN NMR

erre ene a

0 1
  C     -306.438    -374.568    -202.662
  O     -307.100    -373.387    -203.135
  P     -307.016    -372.065    -202.236
  C     -309.548    -371.532    -201.956
  O     -308.307    -371.169    -202.545
  C     -310.708    -370.888    -202.718
  O     -310.746    -371.319    -204.099
  C     -312.079    -371.221    -202.140
  O     -312.405    -370.381    -201.044
  C     -312.979    -370.899    -203.325
  O     -313.205    -369.480    -203.398
  C     -312.134    -371.375    -204.514
  N     -315.803    -374.362    -206.303
  C     -315.827    -373.015    -205.991
  N     -316.993    -372.371    -206.192
  N     -314.793    -372.366    -205.521
  C     -313.688    -373.131    -205.391
  C     -313.544    -374.474    -205.663
  C     -314.695    -375.189    -206.166
  O     -314.741    -376.382    -206.446
  N     -312.271    -374.905    -205.394
  C     -311.636    -373.822    -204.978
  N     -312.463    -372.725    -204.940
  O     -305.837    -371.235    -202.934
  O     -306.733    -372.320    -200.790
  H     -313.687    -369.315    -204.232
  H     -305.399    -370.665    -202.274
  H     -316.631    -374.818    -206.652
  H     -310.594    -373.788    -204.694
  H     -312.243    -370.723    -205.390
  H     -313.963    -371.371    -203.238
  H     -317.812    -372.800    -206.596
  H     -312.155    -372.286    -201.887
  H     -317.017    -371.374    -206.000
  H     -310.565    -369.798    -202.699
  H     -309.577    -371.228    -200.907
  H     -309.628    -372.625    -201.947
  P     -312.781    -371.079    -199.649
  C     -315.345    -370.688    -199.732
  O     -314.109    -370.357    -199.133
  O     -311.636    -370.544    -198.666
  O     -312.822    -372.571    -199.692
  H     -311.440    -371.215    -197.986
  H     -316.150    -370.230    -199.157
  H     -315.493    -371.773    -199.745
  H     -315.381    -370.303    -200.756
  H     -306.582    -375.363    -203.364
  H     -306.847    -374.851    -201.714
  H     -305.392    -374.372    -202.555

 3  4  5  6  7  8  9  10  11  12  23  26  30  31 0
 6-311+G(2d,p)
 ****
 33  35  36  37  38 0
 6-311+G(2d,p)
 ****
 1  2  13  14  15  16  17  18  19  20  21  22  24  25 0
 3-21G
 ****
 27  28  29  32  34  39  40  41  42  43  44  45  46  47  48  49 0
 3-21G
 ****


