%nproc=1
%NoSave
%Mem=1900MB
#P OB98/GEN NMR

erre ene a

0 1
  C       27.180    -220.669     152.008
  O       25.788    -220.945     151.999
  P       25.178    -222.153     152.862
  C       23.766    -220.640     154.410
  O       24.876    -221.521     154.303
  C       22.677    -221.279     155.266
  O       23.253    -221.765     156.496
  C       21.561    -220.328     155.682
  O       20.665    -220.092     154.606
  C       20.971    -221.077     156.873
  O       20.103    -222.128     156.424
  C       22.233    -221.683     157.523
  N       22.705    -220.915     158.670
  C       21.877    -220.906     159.796
  O       20.816    -221.525     159.806
  N       22.289    -220.216     160.910
  C       23.416    -219.573     160.894
  N       23.806    -218.966     162.049
  C       24.293    -219.513     159.710
  C       23.883    -220.201     158.648
  O       26.011    -223.388     152.886
  O       23.714    -222.374     152.267
  H       20.019    -222.760     157.168
  H       23.685    -223.003     151.506
  H       25.216    -218.952     159.743
  H       24.481    -220.224     157.746
  H       22.039    -222.712     157.841
  H       20.397    -220.437     157.551
  H       21.977    -219.373     156.018
  H       22.264    -222.136     154.719
  H       23.264    -219.182     162.880
  H       23.368    -220.456     153.405
  H       24.771    -218.702     162.207
  H       24.097    -219.689     154.838
  P       19.567    -218.939     154.795
  C       20.792    -217.035     153.532
  O       20.382    -217.554     154.782
  O       19.106    -219.118     156.315
  O       18.422    -219.016     153.842
  H       18.252    -219.588     156.360
  H       21.109    -215.999     153.674
  H       19.969    -217.054     152.813
  H       21.638    -217.612     153.149
  H       27.382    -219.832     151.373
  H       27.715    -221.524     151.651
  H       27.492    -220.443     153.006

 3  4  5  6  7  8  9  10  11  12  13  23  27  28  29  30  32 0
 6-311+G(2d,p)
 ****
 34  35 0
 6-311+G(2d,p)
 ****
 1  2  14  15  16  17  18  19  20  21  22  24  25  26 0
 3-21G
 ****
 31  33  36  37  38  39  40  41  42  43  44  45  46 0
 3-21G
 ****


