%nproc=1
%NoSave
%Mem=1900MB
#P OB98/GEN NMR

erre ene a

0 1
  C       28.958     227.733     306.041
  O       28.737     226.526     305.332
  P       27.265     226.297     304.726
  C       24.904     225.887     305.763
  O       26.283     226.141     305.982
  C       24.350     225.044     306.911
  O       24.575     225.701     308.173
  C       22.851     224.783     306.829
  O       22.580     223.711     305.942
  C       22.515     224.480     308.283
  O       22.839     223.115     308.612
  C       23.429     225.458     309.034
  N       19.430     227.582     311.280
  C       19.671     226.259     310.963
  N       18.728     225.371     311.340
  N       20.741     225.846     310.334
  C       21.590     226.848     310.008
  C       21.454     228.194     310.254
  C       20.294     228.631     310.992
  O       20.078     229.776     311.384
  N       22.514     228.908     309.750
  C       23.300     227.986     309.230
  N       22.798     226.719     309.379
  O       27.353     224.825     304.113
  O       26.826     227.316     303.722
  H       22.408     222.874     309.450
  H       27.510     224.860     303.149
  H       18.596     227.841     311.778
  H       24.250     228.182     308.755
  H       23.814     225.029     309.968
  H       21.450     224.606     308.495
  H       17.869     225.618     311.803
  H       22.323     225.691     306.512
  H       18.886     224.394     311.113
  H       24.902     224.095     306.928
  H       24.782     225.343     304.824
  H       24.370     226.842     305.692
  P       21.042     223.382     305.628
  C       18.915     223.034     307.077
  O       20.332     223.063     307.026
  O       21.114     221.959     304.895
  O       20.353     224.396     304.777
  H       20.429     221.914     304.202
  H       18.610     222.330     307.856
  H       18.483     222.718     306.124
  H       18.549     224.030     307.331
  H       29.969     227.762     306.390
  H       28.291     227.783     306.876
  H       28.780     228.565     305.392

 3  4  5  6  7  8  9  10  11  12  23  26  30  31 0
 6-311+G(2d,p)
 ****
 33  35  36  37  38 0
 6-311+G(2d,p)
 ****
 1  2  13  14  15  16  17  18  19  20  21  22  24  25 0
 3-21G
 ****
 27  28  29  32  34  39  40  41  42  43  44  45  46  47  48  49 0
 3-21G
 ****


