%nproc=1
%NoSave
%Mem=1900MB
#P OB98/GEN NMR

erre ene a

0 1
  C     -950.986    -262.531    -115.926
  O     -949.753    -263.213    -116.060
  P     -949.721    -264.764    -115.675
  C     -947.526    -265.416    -116.944
  O     -948.180    -265.227    -115.691
  C     -946.009    -265.307    -116.757
  O     -945.654    -263.956    -116.378
  C     -945.468    -266.198    -115.661
  O     -945.334    -267.548    -116.104
  C     -944.121    -265.539    -115.355
  O     -943.121    -265.961    -116.281
  C     -944.463    -264.038    -115.550
  N     -944.623    -263.327    -114.292
  C     -943.568    -262.511    -113.912
  O     -942.536    -262.399    -114.580
  N     -943.715    -261.846    -112.721
  C     -944.773    -261.969    -111.854
  O     -944.826    -261.398    -110.771
  C     -945.853    -262.881    -112.292
  C     -945.727    -263.512    -113.468
  O     -950.343    -265.501    -116.947
  O     -950.445    -265.109    -114.417
  H     -943.529    -265.908    -117.174
  H     -950.863    -266.273    -116.657
  H     -942.971    -261.230    -112.440
  H     -946.702    -262.998    -111.648
  H     -946.495    -264.190    -113.805
  H     -943.661    -263.555    -116.131
  H     -943.757    -265.777    -114.350
  H     -946.103    -266.146    -114.771
  H     -945.531    -265.532    -117.719
  H     -947.871    -264.649    -117.652
  H     -947.800    -266.400    -117.341
  P     -945.398    -268.695    -114.973
  C     -945.604    -270.460    -116.899
  O     -944.942    -270.028    -115.721
  O     -946.980    -268.834    -114.788
  O     -944.658    -268.330    -113.718
  H     -947.476    -268.669    -115.613
  H     -945.902    -269.586    -117.510
  H     -946.487    -271.036    -116.637
  H     -944.926    -271.076    -117.478
  H     -950.861    -261.509    -116.216
  H     -951.309    -262.576    -114.907
  H     -951.719    -262.993    -116.554

 3  4  5  6  7  8  9  10  11  12  13  23  28  29  30  31  32 0
 6-311+G(2d,p)
 ****
 33  34 0
 6-311+G(2d,p)
 ****
 1  2  14  15  16  17  18  19  20  21  22  24  25  26 0
 3-21G
 ****
 27  35  36  37  38  39  40  41  42  43  44  45 0
 3-21G
 ****


