%nproc=1
%NoSave
%Mem=1900MB
#P OB98/GEN NMR

erre ene a

0 1
  C       46.537     -43.737      71.047
  O       47.313     -42.582      70.795
  H       46.977     -44.317      71.862
  H       45.530     -43.426      71.340
  H       46.467     -44.352      70.144
  P       48.827     -42.824      70.320
  C       51.029     -43.522      71.506
  O       49.623     -43.350      71.613
  C       51.613     -43.919      72.858
  O       50.937     -45.087      73.372
  C       53.097     -44.280      72.834
  O       53.922     -43.124      72.830
  C       53.223     -45.052      74.137
  O       53.302     -44.130      75.241
  C       51.891     -45.818      74.186
  N       51.487     -50.776      75.397
  C       51.249     -49.652      76.110
  N       51.359     -48.365      75.710
  C       51.745     -48.299      74.425
  C       52.002     -49.357      73.566
  C       51.867     -50.650      74.101
  N       52.180     -51.796      73.384
  N       52.391     -48.895      72.324
  C       52.386     -47.582      72.437
  N       51.992     -47.177      73.686
  O       49.378     -41.332      70.111
  O       48.980     -43.649      69.085
  H       53.188     -44.655      76.055
  H       49.315     -41.097      69.167
  H       50.929     -49.803      77.133
  H       52.658     -46.892      71.651
  H       51.478     -45.867      75.201
  H       54.115     -45.684      74.179
  H       53.332     -44.948      71.996
  H       51.427     -43.095      73.562
  H       51.487     -42.583      71.176
  H       52.492     -52.567      73.966
  H       52.703     -51.625      72.530
  H       51.231     -44.299      70.763
  P       55.355     -43.233      72.116
  C       57.679     -43.946      73.000
  O       56.273     -44.142      73.069
  O       55.954     -41.759      72.302
  O       55.323     -43.628      70.679
  H       56.193     -41.388      71.427
  H       58.166     -44.612      73.682
  H       57.911     -42.935      73.261
  H       58.018     -44.144      72.005

 6  7  8  9  10  11  12  13  14  15  25  28  32  33  34  35 0
 6-311+G(2d,p)
 ****
 36  39  40 0
 6-311+G(2d,p)
 ****
 1  2  3  4  5  16  17  18  19  20  21  22  23  24 0
 3-21G
 ****
 26  27  29  30  31  37  38  41  42  43  44  45  46  47  48 0
 3-21G
 ****


