%nproc=1
%NoSave
%Mem=1900MB
#P OB98/GEN NMR

erre ene a

0 1
  C      -47.371    -107.839      13.147
  O      -46.632    -107.298      14.220
  H      -47.487    -107.072      12.377
  H      -48.364    -108.139      13.492
  H      -46.852    -108.698      12.715
  P      -46.204    -108.296      15.401
  C      -47.473    -106.866      17.158
  O      -46.237    -107.440      16.760
  C      -47.257    -105.886      18.311
  O      -46.652    -104.675      17.789
  C      -48.548    -105.493      19.033
  O      -48.274    -105.382      20.433
  C      -48.871    -104.120      18.471
  O      -49.664    -103.334      19.360
  C      -47.469    -103.561      18.195
  N      -47.502    -102.513      17.180
  C      -47.573    -101.195      17.639
  O      -47.614    -100.962      18.849
  N      -47.654    -100.177      16.725
  C      -47.745    -100.454      15.462
  N      -47.854     -99.402      14.606
  C      -47.743    -101.832      14.935
  C      -47.612    -102.802      15.839
  O      -44.641    -108.521      15.149
  O      -46.962    -109.579      15.459
  H      -50.500    -103.818      19.537
  H      -44.363    -109.414      15.428
  H      -47.848    -102.014      13.876
  H      -47.607    -103.845      15.547
  H      -47.032    -103.147      19.114
  H      -49.427    -104.230      17.532
  H      -49.363    -106.204      18.877
  H      -46.537    -106.326      19.011
  H      -47.870     -98.472      15.008
  H      -48.144    -107.664      17.491
  H      -47.977     -99.501      13.610
  H      -47.928    -106.355      16.303
  P      -49.355    -106.018      21.431
  C      -49.124    -104.149      23.220
  O      -49.007    -105.533      22.919
  O      -48.981    -107.573      21.440
  O      -50.769    -105.793      21.005
  H      -49.658    -108.082      20.956
  H      -48.860    -103.983      24.244
  H      -50.133    -103.832      23.056
  H      -48.467    -103.590      22.587

 6  7  8  9  10  11  12  13  14  15  16  26  30  31  32  33  35 0
 6-311+G(2d,p)
 ****
 37  38 0
 6-311+G(2d,p)
 ****
 1  2  3  4  5  17  18  19  20  21  22  23  24  25 0
 3-21G
 ****
 27  28  29  34  36  39  40  41  42  43  44  45  46 0
 3-21G
 ****


