%nproc=1
%NoSave
%Mem=1900MB
#P OB98/GEN NMR

erre ene a

0 1
  C      745.167    -473.443    -899.040
  O      743.997    -474.057    -898.530
  H      744.915    -472.969    -900.000
  H      745.936    -474.196    -899.220
  H      745.537    -472.680    -898.350
  P      744.121    -474.741    -897.080
  C      742.877    -472.709    -896.070
  O      744.023    -473.550    -896.000
  C      742.065    -472.839    -894.770
  O      741.464    -474.176    -894.700
  C      742.890    -472.643    -893.480
  O      742.049    -471.986    -892.510
  C      743.124    -474.061    -893.010
  O      743.431    -474.150    -891.620
  C      741.787    -474.709    -893.400
  N      743.234    -478.736    -890.760
  C      743.225    -477.395    -890.430
  N      743.668    -477.088    -889.190
  N      742.808    -476.455    -891.220
  C      742.364    -476.921    -892.410
  C      742.319    -478.213    -892.880
  C      742.803    -479.253    -891.990
  O      742.858    -480.444    -892.240
  N      741.818    -478.265    -894.150
  C      741.549    -477.013    -894.460
  N      741.864    -476.149    -893.440
  O      745.663    -475.177    -897.030
  O      743.207    -475.903    -896.830
  H      744.328    -473.779    -891.500
  H      745.761    -476.099    -897.330
  H      743.565    -479.430    -890.120
  H      741.144    -476.666    -895.410
  H      740.986    -474.442    -892.710
  H      743.954    -474.516    -893.570
  H      743.959    -477.763    -888.490
  H      743.811    -472.073    -893.610
  H      743.636    -476.110    -888.900
  H      741.235    -472.124    -894.810
  H      742.249    -473.022    -896.900
  H      743.185    -471.677    -896.210
  P      742.214    -470.397    -892.340
  C      739.727    -470.082    -893.020
  O      741.081    -469.690    -893.210
  O      743.556    -470.084    -893.170
  O      742.324    -469.951    -890.920
  H      743.991    -469.298    -892.800
  H      739.097    -469.517    -893.675
  H      739.442    -469.899    -892.005
  H      739.624    -471.125    -893.237

 6  7  8  9  10  11  12  13  14  15  26  29  33  34 0
 6-311+G(2d,p)
 ****
 36  38  39  40  41 0
 6-311+G(2d,p)
 ****
 1  2  3  4  5  16  17  18  19  20  21  22  23  24  25 0
 3-21G
 ****
 27  28  30  31  32  35  37  42  43  44  45  46  47 0
 3-21G
 ****
 48  49 0
 3-21G
 ****


