%nproc=1
%NoSave
%Mem=1900MB
#P OB98/GEN NMR

erre ene a

0 1
  C      199.958      77.768     -78.793
  O      200.197      79.112     -78.383
  P      199.107      80.062     -77.705
  C      199.825      79.894     -75.189
  O      199.741      80.676     -76.370
  C      199.406      80.662     -73.924
  O      199.284      79.736     -72.812
  C      200.483      81.675     -73.528
  O      200.524      82.946     -74.147
  C      200.424      81.725     -72.009
  O      199.590      82.780     -71.526
  C      199.832      80.363     -71.634
  N      203.193      79.677     -67.838
  C      202.459      80.799     -68.161
  N      202.681      81.900     -67.412
  N      201.599      80.845     -69.143
  C      201.538      79.705     -69.865
  C      202.230      78.534     -69.657
  C      203.139      78.472     -68.530
  O      203.803      77.500     -68.194
  N      201.927      77.593     -70.609
  C      201.075      78.203     -71.407
  N      200.799      79.488     -70.993
  O      197.731      79.495     -77.602
  O      199.041      81.325     -78.709
  H      198.707      82.670     -71.923
  H      198.118      81.651     -78.685
  H      203.826      79.689     -67.055
  H      200.621      77.763     -72.287
  H      199.000      80.474     -70.927
  H      201.424      81.902     -71.591
  H      203.412      81.966     -66.720
  H      201.453      81.216     -73.767
  H      202.311      82.781     -67.776
  H      198.417      81.110     -74.050
  H      200.861      79.554     -75.105
  H      199.214      78.995     -75.292
  P      201.342      83.331     -75.468
  C      199.669      83.114     -77.395
  O      200.325      83.999     -76.504
  O      201.660      81.919     -76.151
  O      202.602      84.101     -75.230
  H      202.368      82.011     -76.815
  H      199.258      83.687     -78.228
  H      198.851      82.608     -76.874
  H      200.367      82.365     -77.787
  H      200.852      77.360     -79.216
  H      199.178      77.752     -79.525
  H      199.665      77.184     -77.946

 3  4  5  6  7  8  9  10  11  12  23  26  30  31 0
 6-311+G(2d,p)
 ****
 33  35  36  37  38 0
 6-311+G(2d,p)
 ****
 1  2  13  14  15  16  17  18  19  20  21  22  24  25 0
 3-21G
 ****
 27  28  29  32  34  39  40  41  42  43  44  45  46  47  48  49 0
 3-21G
 ****


