%nproc=1
%NoSave
%Mem=1900MB
#P OB98/GEN NMR

erre ene a

0 1
  C     -112.084      56.742      23.584
  O     -112.715      57.452      22.533
  P     -112.076      57.347      21.062
  C     -110.527      59.422      21.350
  O     -110.622      58.021      21.141
  C     -109.164      59.942      20.882
  O     -108.127      59.170      21.539
  C     -108.919      59.841      19.372
  O     -108.084      60.946      19.008
  C     -108.138      58.547      19.238
  O     -107.392      58.476      18.029
  C     -107.294      58.594      20.507
  N     -103.273      55.600      21.202
  C     -103.347      56.878      20.674
  N     -102.172      57.456      20.341
  N     -104.465      57.528      20.492
  C     -105.556      56.828      20.887
  C     -105.617      55.548      21.388
  C     -104.369      54.855      21.618
  O     -104.252      53.761      22.162
  N     -106.912      55.147      21.587
  C     -107.626      56.213      21.286
  N     -106.848      57.271      20.902
  O     -112.937      58.400      20.223
  O     -112.082      55.980      20.450
  H     -106.611      59.061      18.123
  H     -113.686      57.962      19.772
  H     -102.380      55.158      21.336
  H     -108.704      56.279      21.335
  H     -106.402      59.225      20.395
  H     -108.828      57.693      19.256
  H     -101.270      57.026      20.483
  H     -109.840      59.844      18.778
  H     -102.193      58.404      19.983
  H     -109.061      60.982      21.219
  H     -110.633      59.629      22.420
  H     -111.340      59.927      20.817
  P     -107.825      61.211      17.448
  C     -105.323      60.545      17.539
  O     -106.601      60.281      16.998
  O     -107.192      62.683      17.437
  O     -109.048      61.151      16.590
  H     -107.447      63.144      16.615
  H     -104.718      59.636      17.468
  H     -105.382      60.849      18.588
  H     -104.840      61.336      16.958
  H     -112.618      56.906      24.496
  H     -111.077      57.087      23.693
  H     -112.080      55.697      23.356

 3  4  5  6  7  8  9  10  11  12  23  26  30  31 0
 6-311+G(2d,p)
 ****
 33  35  36  37  38 0
 6-311+G(2d,p)
 ****
 1  2  13  14  15  16  17  18  19  20  21  22  24  25 0
 3-21G
 ****
 27  28  29  32  34  39  40  41  42  43  44  45  46  47  48  49 0
 3-21G
 ****


