%nproc=1
%NoSave
%Mem=1900MB
#P OB98/GEN NMR

erre ene a

0 1
  C       97.549     202.238     508.526
  O       98.581     201.270     508.505
  H       96.867     202.006     509.346
  H       96.995     202.211     507.584
  H       97.968     203.235     508.684
  P       99.717     201.460     507.389
  C       98.335     200.773     505.285
  O       98.940     201.822     506.031
  C       97.478     201.356     504.155
  O       98.360     201.988     503.182
  C       96.657     200.298     503.397
  O       95.453     200.920     502.913
  C       97.566     199.982     502.224
  O       96.850     199.321     501.208
  C       98.067     201.386     501.902
  N       99.779     200.520     497.177
  C       98.534     200.517     497.701
  N       98.158     200.769     498.972
  C       99.228     201.072     499.729
  C      100.555     201.109     499.339
  C      100.819     200.809     497.992
  N      102.088     200.789     497.457
  N      101.367     201.435     500.412
  C      100.541     201.593     501.424
  N       99.240     201.387     501.058
  O      100.240     199.968     507.143
  O      100.823     202.392     507.746
  H       96.063     199.836     500.940
  H      101.008     199.786     507.717
  H       97.730     200.285     497.006
  H      100.828     201.847     502.439
  H       97.306     201.999     501.406
  H       98.387     199.325     502.528
  H       96.399     199.429     504.008
  H       96.836     202.148     504.561
  H       97.710     200.182     505.960
  H       99.113     200.136     504.860
  H      102.194     200.536     496.488
  H      102.880     200.968     498.059
  P       94.032     200.339     503.379
  C       93.247     199.011     501.273
  O       93.706     198.964     502.615
  O       93.008     201.362     502.685
  O       93.806     200.310     504.857
  H       92.324     201.628     503.328
  H       93.079     198.016     500.918
  H       93.983     199.488     500.661
  H       92.332     199.565     501.228

 6  7  8  9  10  11  12  13  14  15  25  28  32  33  34  35 0
 6-311+G(2d,p)
 ****
 36  37  40 0
 6-311+G(2d,p)
 ****
 1  2  3  4  5  16  17  18  19  20  21  22  23  24 0
 3-21G
 ****
 26  27  29  30  31  38  39 41  42  43  44  45  46  47  48 0
 3-21G
 ****


