%nproc=1
%NoSave
%Mem=1900MB
#P OB98/GEN NMR

erre ene a

0 1
  C      336.184      14.276     -77.807
  O      337.129      15.310     -77.996
  H      335.170      14.663     -77.938
  H      336.362      13.497     -78.551
  H      336.292      13.842     -76.808
  P      337.055      16.545     -76.975
  C      337.361      15.093     -74.847
  O      336.507      15.947     -75.590
  C      337.267      15.419     -73.360
  O      337.781      16.743     -73.109
  C      335.851      15.414     -72.794
  O      335.396      14.098     -72.521
  C      336.053      16.211     -71.516
  O      336.633      15.366     -70.503
  C      337.070      17.275     -71.959
  N      333.953      21.026     -70.418
  C      334.429      19.933     -69.787
  N      335.273      18.989     -70.255
  C      335.643      19.272     -71.514
  C      335.259      20.358     -72.282
  C      334.367      21.265     -71.688
  N      333.832      22.346     -72.370
  N      335.835      20.299     -73.536
  C      336.536      19.186     -73.529
  N      336.457      18.534     -72.329
  O      335.820      17.398     -77.540
  O      338.297      17.366     -76.879
  H      337.513      15.102     -70.829
  H      336.159      18.122     -78.098
  H      334.082      19.793     -68.766
  H      337.110      18.811     -74.366
  H      337.816      17.480     -71.186
  H      335.122      16.614     -71.107
  H      335.156      15.955     -73.446
  H      337.903      14.707     -72.818
  H      338.395      15.229     -75.181
  H      332.910      22.618     -72.041
  H      333.968      22.316     -73.373
  H      337.062      14.056     -75.027
  P      333.814      13.831     -72.556
  C      333.558      13.294     -75.074
  O      333.318      14.230     -74.031
  O      333.236      15.003     -71.631
  O      333.383      12.493     -72.068
  H      332.703      14.619     -70.910
  H      333.180      13.683     -75.996
  H      333.064      12.372     -74.847
  H      334.610      13.122     -75.164

 6  7  8  9  10  11  12  13  14  15  25  28  32  33  34  35 0
 6-311+G(2d,p)
 ****
 36  39  40 0
 6-311+G(2d,p)
 ****
 1  2  3  4  5  16  17  18  19  20  21  22  23  24 0
 3-21G
 ****
 26  27  29  30  31  37  38  41  42  43  44  45  46  47  48 0
 3-21G
 ****


