%nproc=1
%NoSave
%Mem=1900MB
#P OB98/GEN NMR

erre ene a

0 1
  C      282.344      87.565     383.837
  O      282.630      88.678     382.983
  P      282.895      90.114     383.638
  C      281.971      91.909     382.034
  O      283.115      91.176     382.446
  C      282.110      92.358     380.581
  O      283.373      93.014     380.350
  C      282.076      91.209     379.588
  O      280.746      90.721     379.435
  C      282.672      91.845     378.351
  O      281.678      92.611     377.624
  C      283.716      92.798     378.957
  N      285.084      92.306     378.824
  C      285.515      92.040     377.513
  O      284.737      92.194     376.563
  N      286.804      91.603     377.314
  C      287.586      91.440     378.336
  N      288.851      91.001     378.083
  C      287.168      91.704     379.723
  C      285.913      92.126     379.895
  O      283.929      90.149     384.725
  O      281.449      90.528     384.205
  H      282.157      93.036     376.878
  H      281.572      91.099     384.985
  H      287.869      91.556     380.549
  H      285.530      92.335     380.890
  H      283.669      93.793     378.470
  H      283.068      91.113     377.651
  H      282.729      90.394     379.935
  H      281.307      93.068     380.362
  H      289.109      90.828     377.115
  H      281.838      92.778     382.678
  H      289.553      90.894     378.804
  H      281.085      91.273     382.172
  P      280.434      89.233     379.958
  C      278.943      88.647     377.928
  O      279.026      88.774     379.330
  O      280.079      89.473     381.516
  O      281.569      88.255     379.807
  H      280.387      88.714     382.035
  H      278.069      88.039     377.686
  H      279.820      88.168     377.504
  H      278.816      89.635     377.481
  H      282.194      86.688     383.242
  H      281.459      87.768     384.403
  H      283.166      87.407     384.504

 3  4  5  6  7  8  9  10  11  12  13  23  27  28  29  30  32 0
 6-311+G(2d,p)
 ****
 34  35 0
 6-311+G(2d,p)
 ****
 1  2  14  15  16  17  18  19  20  21  22  24  25  26 0
 3-21G
 ****
 31  33  36  37  38  39  40  41  42  43  44  45  46 0
 3-21G
 ****


