%nproc=1
%NoSave
%Mem=1900MB
#P OB98/GEN NMR

erre ene a

0 1
  C      268.666     404.930     183.453
  O      269.096     403.587     183.492
  H      267.653     404.983     183.872
  H      268.630     405.288     182.420
  H      269.323     405.570     184.051
  P      270.558     403.237     182.929
  C      271.010     401.873     185.087
  O      270.950     401.860     183.669
  C      271.547     400.543     185.604
  O      272.870     400.275     185.082
  C      271.717     400.466     187.121
  O      270.492     400.346     187.824
  C      272.566     399.210     187.224
  O      271.746     398.053     187.012
  C      273.552     399.430     186.050
  N      274.804     400.054     186.470
  C      275.734     399.224     187.111
  O      275.495     398.027     187.290
  N      276.925     399.762     187.537
  C      277.150     401.035     187.382
  N      278.339     401.528     187.842
  C      276.187     401.954     186.743
  C      275.051     401.399     186.319
  O      271.577     404.328     183.023
  O      270.298     402.735     181.433
  H      271.258     397.896     187.846
  H      271.176     402.513     181.030
  H      276.403     403.005     186.665
  H      274.290     402.012     185.842
  H      273.782     398.477     185.550
  H      273.051     399.098     188.203
  H      272.302     401.317     187.489
  H      270.884     399.752     185.233
  H      278.974     400.872     188.276
  H      270.004     402.067     185.473
  H      278.562     402.504     187.828
  H      271.680     402.676     185.425
  P      270.254     401.367     189.048
  C      267.746     401.250     188.340
  O      268.695     401.304     189.391
  O      270.442     402.799     188.365
  O      271.159     401.171     190.224
  H      271.348     403.148     188.531
  H      266.759     401.213     188.752
  H      267.919     400.376     187.748
  H      267.843     402.121     187.726

 6  7  8  9  10  11  12  13  14  15  16  26  30  31  32  33  35 0
 6-311+G(2d,p)
 ****
 37  38 0
 6-311+G(2d,p)
 ****
 1  2  3  4  5  17  18  19  20  21  22  23  24  25 0
 3-21G
 ****
 27  28  29  34  36  39  40  41  42  43  44  45  46 0
 3-21G
 ****


