%nproc=1
%NoSave
%Mem=1900MB
#P OB98/GEN NMR

erre ene a

0 1
  C      169.013     -31.065     120.684
  O      168.133     -29.957     120.739
  H      169.703     -31.005     121.530
  H      169.590     -31.044     119.754
  H      168.445     -31.997     120.755
  P      167.054     -29.834     119.557
  C      167.247     -29.580     116.988
  O      167.937     -29.678     118.226
  C      167.856     -28.481     116.120
  O      167.764     -27.211     116.789
  C      169.330     -28.685     115.791
  O      169.473     -29.559     114.681
  C      169.747     -27.266     115.438
  O      169.361     -26.972     114.081
  C      168.918     -26.414     116.414
  N      170.976     -22.455     118.958
  C      170.516     -22.566     117.690
  N      170.034     -23.662     117.063
  C      170.043     -24.724     117.887
  C      170.485     -24.762     119.202
  C      170.966     -23.557     119.743
  N      171.435     -23.448     121.034
  N      170.347     -26.027     119.731
  C      169.776     -26.727     118.772
  N      169.604     -25.995     117.623
  O      165.982     -28.819     119.762
  O      166.543     -31.350     119.454
  H      169.723     -26.091     113.868
  H      167.289     -31.969     119.545
  H      170.541     -21.654     117.100
  H      169.450     -27.758     118.863
  H      168.542     -25.500     115.938
  H      170.827     -27.117     115.500
  H      169.899     -29.021     116.664
  H      167.258     -28.409     115.201
  H      166.184     -29.367     117.161
  H      171.934     -22.603     121.273
  H      171.545     -24.298     121.570
  H      167.327     -30.550     116.485
  P      170.633     -30.670     114.647
  C      173.142     -30.642     114.091
  O      171.928     -29.903     114.093
  O      170.265     -31.924     113.935
  O      170.991     -30.913     116.186
  H      171.489     -31.748     116.287
  H      173.930     -30.032     113.703
  H      173.029     -31.512     113.478
  H      173.380     -30.939     115.091

 6  7  8  9  10  11  12  13  14  15  25  28  32  33  34  35 0
 6-311+G(2d,p)
 ****
 36  39  40 0
 6-311+G(2d,p)
 ****
 1  2  3  4  5  16  17  18  19  20  21  22  23  24 0
 3-21G
 ****
 26  27  29  30  31  37  38  41  42  43  44  45  46  47 0
 3-21G
 ****
 48 0
 3-21G
 ****


