%nproc=1
%NoSave
%Mem=1900MB
#P OB98/GEN NMR

erre ene a

0 1
  C       63.746     220.688     146.002
  O       64.441     219.583     145.399
  P       66.038     219.493     145.542
  C       66.627     220.412     143.164
  O       66.703     220.584     144.570
  C       66.838     221.754     142.454
  O       65.882     222.730     142.920
  C       68.203     222.385     142.705
  O       69.223     221.763     141.943
  C       67.942     223.832     142.301
  O       68.045     223.997     140.876
  C       66.485     224.033     142.766
  N       66.388     224.815     143.993
  C       66.545     226.192     143.863
  O       66.809     226.742     142.798
  N       66.417     226.920     145.018
  C       66.223     226.409     146.271
  O       66.139     227.112     147.271
  C       66.149     224.944     146.358
  C       66.238     224.228     145.232
  O       66.364     218.124     144.771
  O       66.566     219.450     146.939
  H       67.870     224.939     140.690
  H       67.177     217.729     145.139
  H       66.497     227.919     144.941
  H       66.020     224.496     147.333
  H       66.184     223.142     145.280
  H       65.905     224.541     141.983
  H       68.652     224.529     142.759
  H       68.439     222.350     143.775
  H       66.678     221.604     141.378
  H       65.641     220.022     142.900
  H       67.388     219.688     142.852
  P       70.229     220.794     142.739
  C       71.902     222.668     143.464
  O       70.924     221.725     143.842
  O       71.358     220.549     141.628
  O       69.570     219.556     143.239
  H       71.487     221.329     141.061
  H       71.703     223.079     142.469
  H       72.888     222.188     143.467
  H       71.905     223.486     144.191
  H       62.697     220.595     145.813
  H       64.104     221.606     145.584
  H       63.920     220.685     147.058

 3  4  5  6  7  8  9  10  11  12  13  23  28  29  30  31  32 0
 6-311+G(2d,p)
 ****
 33  34 0
 6-311+G(2d,p)
 ****
 1  2  14  15  16  17  18  19  20  21  22  24  25  26 0
 3-21G
 ****
 27  35  36  37  38  39  40  41  42  43  44  45 0
 3-21G
 ****


