%nproc=1
%NoSave
%Mem=1900MB
#P OB98/GEN NMR

erre ene a

0 1
  C      -19.540     211.881     250.438
  O      -20.203     210.746     250.962
  H      -20.242     212.719     250.416
  H      -19.193     211.695     249.418
  H      -18.690     212.152     251.071
  P      -19.426     209.345     250.954
  C      -17.929     208.181     249.192
  O      -18.987     209.105     249.433
  C      -17.301     208.452     247.827
  O      -16.570     209.696     247.850
  C      -16.291     207.387     247.412
  O      -16.950     206.213     246.979
  C      -15.515     208.135     246.345
  O      -16.215     208.144     245.097
  C      -15.448     209.556     246.950
  N      -14.187     209.813     247.647
  C      -13.253     210.588     246.956
  O      -13.507     211.019     245.831
  N      -12.038     210.839     247.553
  C      -11.792     210.368     248.735
  N      -10.573     210.650     249.268
  C      -12.755     209.560     249.504
  C      -13.919     209.320     248.904
  O      -20.125     208.180     251.585
  O      -18.039     209.679     251.685
  H      -15.690     208.710     244.497
  H      -18.119     209.540     252.646
  H      -12.509     209.194     250.492
  H      -14.686     208.734     249.401
  H      -15.565     210.317     246.171
  H      -14.538     207.683     246.176
  H      -15.613     207.168     248.242
  H      -18.108     208.543     247.088
  H       -9.937     211.203     248.700
  H      -18.365     207.179     249.216
  H      -10.303     210.415     250.212
  H      -17.168     208.252     249.980
  P      -16.133     204.842     246.795
  C      -14.007     204.200     245.476
  O      -15.067     205.138     245.624
  O      -16.965     203.622     246.609
  O      -15.211     204.791     248.103
  H      -15.737     204.557     248.909
  H      -13.371     204.505     244.671
  H      -14.413     203.233     245.263
  H      -13.440     204.157     246.382

 6  7  8  9  10  11  12  13  14  15  16  26  30  31  32  33  35 0
 6-311+G(2d,p)
 ****
 37  38 0
 6-311+G(2d,p)
 ****
 1  2  3  4  5  17  18  19  20  21  22  23  24  25 0
 3-21G
 ****
 27  28  29  34  36  39  40  41  42  43  44  45  46 0
 3-21G
 ****


