%nproc=1
%NoSave
%Mem=1900MB
#P OB98/GEN NMR

erre ene a

0 1
  C     -408.347    -281.817     277.758
  O     -408.036    -280.449     277.563
  H     -407.711    -282.212     278.557
  H     -408.146    -282.381     276.839
  H     -409.393    -281.932     278.046
  P     -408.877    -279.682     276.434
  C     -409.414    -280.241     273.941
  O     -408.546    -280.426     275.050
  C     -408.607    -279.867     272.687
  O     -408.225    -278.461     272.781
  C     -407.304    -280.675     272.530
  O     -407.012    -280.763     271.120
  C     -406.291    -279.758     273.199
  O     -404.974    -280.141     272.880
  C     -406.785    -278.409     272.677
  N     -402.593    -275.741     273.889
  C     -402.780    -276.789     273.064
  N     -403.927    -277.442     272.784
  C     -404.959    -276.893     273.443
  C     -404.929    -275.811     274.310
  C     -403.672    -275.225     274.534
  N     -403.473    -274.155     275.386
  N     -406.193    -275.531     274.793
  C     -406.977    -276.425     274.225
  N     -406.278    -277.271     273.407
  O     -408.119    -278.275     276.299
  O     -410.331    -279.505     276.723
  H     -404.783    -281.047     273.213
  H     -408.563    -277.603     276.853
  H     -401.883    -277.167     272.564
  H     -408.051    -276.515     274.382
  H     -406.530    -278.263     271.620
  H     -406.381    -279.808     274.287
  H     -407.361    -281.680     272.948
  H     -409.253    -279.966     271.810
  H     -410.117    -279.432     274.186
  H     -409.971    -281.161     273.758
  H     -402.532    -273.807     275.505
  H     -404.257    -273.775     275.886
  P     -407.568    -282.018     270.285
  C     -407.129    -284.608     270.221
  O     -406.734    -283.328     270.705
  O     -406.993    -281.724     268.815
  O     -409.054    -282.180     270.251
  H     -407.583    -282.128     268.149
  H     -406.463    -285.354     270.601
  H     -407.095    -284.611     269.152
  H     -408.126    -284.820     270.547

 6  7  8  9  10  11  12  13  14  15  25  28  32  33  34  35 0
 6-311+G(2d,p)
 ****
 36  37  40 0
 6-311+G(2d,p)
 ****
 1  2  3  4  5  16  17  18  19  20  21  22  23  24 0
 3-21G
 ****
 26  27  29  30  31  38  39 41  42  43  44  45  46  47  48 0
 3-21G
 ****


