%nproc=1
%NoSave
%Mem=1900MB
#P OB98/GEN NMR

erre ene a

0 1
  C     -394.702    -412.118     256.779
  O     -393.435    -411.504     256.772
  H     -395.272    -411.748     255.923
  H     -395.248    -411.861     257.689
  H     -394.602    -413.205     256.692
  P     -392.393    -411.830     257.950
  C     -391.625    -409.465     258.605
  O     -391.297    -410.652     257.888
  C     -390.873    -408.253     258.040
  O     -389.445    -408.490     258.135
  C     -391.198    -407.967     256.566
  O     -391.461    -406.569     256.394
  C     -389.912    -408.334     255.836
  O     -389.763    -407.661     254.594
  C     -388.869    -408.004     256.905
  N     -387.577    -408.614     256.621
  C     -386.450    -407.864     256.995
  O     -386.587    -406.769     257.535
  N     -385.205    -408.350     256.696
  C     -385.092    -409.469     256.040
  N     -383.831    -409.883     255.754
  C     -386.252    -410.264     255.603
  C     -387.451    -409.790     255.928
  O     -391.842    -413.216     257.924
  O     -393.189    -411.498     259.303
  H     -390.303    -408.126     253.918
  H     -392.768    -411.991     260.047
  H     -386.108    -411.189     255.052
  H     -388.367    -410.314     255.651
  H     -388.734    -406.919     256.998
  H     -389.912    -409.415     255.642
  H     -392.053    -408.532     256.195
  H     -391.093    -407.384     258.672
  H     -383.070    -409.298     256.064
  H     -391.370    -409.621     259.660
  H     -383.618    -410.719     255.227
  H     -392.703    -409.296     258.507
  P     -393.006    -406.146     256.288
  C     -393.340    -404.413     254.384
  O     -393.070    -404.631     255.758
  O     -393.462    -406.040     257.816
  O     -393.837    -407.129     255.534
  H     -394.074    -406.774     258.033
  H     -393.350    -403.362     254.185
  H     -394.293    -404.832     254.137
  H     -392.580    -404.880     253.793

 6  7  8  9  10  11  12  13  14  15  16  26  30  31  32  33  35 0
 6-311+G(2d,p)
 ****
 37  38 0
 6-311+G(2d,p)
 ****
 1  2  3  4  5  17  18  19  20  21  22  23  24  25 0
 3-21G
 ****
 27  28  29  34  36  39  40  41  42  43  44  45  46 0
 3-21G
 ****


