%nproc=1
%NoSave
%Mem=1900MB
#P OB98/GEN NMR

erre ene a

0 1
  C      -14.979       3.827    -454.657
  O      -14.860       2.516    -455.193
  P      -14.875       1.237    -454.239
  C      -13.353       0.330    -452.301
  O      -13.550       1.248    -453.358
  C      -12.110       0.744    -451.505
  O      -12.299       2.061    -450.934
  C      -11.822      -0.226    -450.362
  O      -10.884      -1.209    -450.766
  C      -11.310       0.688    -449.270
  O       -9.917       0.990    -449.475
  C      -12.168       1.953    -449.491
  N      -13.525       1.989    -448.910
  C      -13.709       1.670    -447.564
  O      -12.793       1.385    -446.801
  N      -15.012       1.670    -447.126
  C      -16.108       1.991    -447.879
  O      -17.268       1.752    -447.554
  C      -15.823       2.578    -449.192
  C      -14.575       2.529    -449.651
  O      -14.635       0.026    -455.260
  O      -16.125       1.049    -453.435
  H       -9.433       0.143    -449.456
  H      -15.477      -0.403    -455.488
  H      -15.162       1.297    -446.193
  H      -16.648       2.974    -449.767
  H      -14.343       2.915    -450.637
  H      -11.648       2.854    -449.141
  H      -11.377       0.215    -448.293
  H      -12.759      -0.692    -450.020
  H      -11.250       0.793    -452.187
  H      -13.232      -0.681    -452.702
  H      -14.236       0.314    -451.648
  P      -10.589      -2.458    -449.810
  C      -10.320      -2.619    -447.265
  O      -10.124      -1.817    -448.410
  O       -9.675      -3.497    -450.369
  O      -12.046      -3.048    -449.508
  H      -12.226      -3.807    -450.105
  H       -9.806      -2.157    -446.420
  H       -9.906      -3.623    -447.423
  H      -11.385      -2.692    -447.039
  H      -14.947       4.542    -455.453
  H      -14.171       4.010    -453.980
  H      -15.909       3.916    -454.135

 3  4  5  6  7  8  9  10  11  12  13  23  28  29  30  31  32 0
 6-311+G(2d,p)
 ****
 33  34 0
 6-311+G(2d,p)
 ****
 1  2  14  15  16  17  18  19  20  21  22  24  25  26  27 0
 3-21G
 ****
 35  36  37  38  39  40  41  42  43  44  45 0
 3-21G
 ****


