%nproc=1
%NoSave
%Mem=1900MB
#P OB98/GEN NMR

erre ene a

0 1
  C     -120.013    -271.914     -62.402
  O     -119.748    -270.525     -62.417
  H     -120.766    -272.138     -63.161
  H     -120.399    -272.211     -61.424
  H     -119.104    -272.478     -62.629
  P     -118.583    -269.995     -61.455
  C     -118.049    -267.836     -62.810
  O     -118.562    -268.396     -61.611
  C     -119.101    -267.920     -63.914
  O     -120.300    -267.232     -63.466
  C     -118.659    -267.261     -65.228
  O     -119.172    -268.019     -66.326
  C     -119.337    -265.902     -65.181
  O     -119.527    -265.313     -66.457
  C     -120.646    -266.254     -64.468
  N     -121.287    -265.092     -63.861
  C     -121.889    -264.171     -64.713
  O     -121.985    -264.305     -65.933
  N     -122.396    -263.050     -64.109
  C     -122.339    -262.754     -62.777
  O     -122.793    -261.721     -62.299
  C     -121.685    -263.761     -61.928
  C     -121.195    -264.863     -62.500
  O     -117.244    -270.450     -62.208
  O     -118.640    -270.476     -60.045
  H     -116.970    -271.338     -61.907
  H     -120.094    -265.910     -66.985
  H     -122.836    -262.371     -64.713
  H     -121.614    -263.557     -60.870
  H     -120.693    -265.619     -61.905
  H     -121.345    -266.737     -65.169
  H     -118.741    -265.209     -64.572
  H     -117.576    -267.171     -65.314
  H     -119.372    -268.972     -64.071
  H     -117.158    -268.396     -63.117
  H     -117.769    -266.793     -62.631
  P     -118.180    -269.080     -67.016
  C     -120.167    -270.664     -67.639
  O     -119.073    -269.882     -68.087
  O     -117.955    -270.121     -65.829
  O     -116.941    -268.450     -67.558
  H     -118.747    -270.270     -65.284
  H     -120.645    -271.123     -68.479
  H     -120.868    -270.037     -67.129
  H     -119.814    -271.422     -66.971

 6  7  8  9  10  11  12  13  14  15  16  27  31  32  33  34  35 0
 6-311+G(2d,p)
 ****
 36  37 0
 6-311+G(2d,p)
 ****
 1  2  3  4  5  17  18  19  20  21  22  23  24  25 0
 3-21G
 ****
 26  28  29  30  38  39  40  41  42  43  44  45 0
 3-21G
 ****


