%nproc=1
%NoSave
%Mem=1900MB
#P OB98/GEN NMR

erre ene a

0 1
  C     -129.540     665.541     414.011
  O     -129.444     666.632     413.121
  P     -128.073     667.156     412.498
  C     -127.583     668.526     414.689
  O     -127.649     668.509     413.259
  C     -126.245     669.112     415.168
  O     -126.299     669.251     416.610
  C     -125.069     668.162     414.832
  O     -123.902     668.814     414.371
  C     -124.951     667.323     416.106
  O     -123.694     666.688     416.256
  C     -125.316     668.342     417.190
  N     -124.275     666.486     421.814
  C     -123.446     667.189     420.944
  N     -122.136     667.232     421.280
  N     -123.875     667.752     419.838
  C     -125.175     667.514     419.583
  C     -126.094     666.855     420.362
  C     -125.620     666.256     421.599
  O     -126.299     665.543     422.335
  N     -127.329     666.756     419.739
  C     -127.141     667.343     418.589
  N     -125.852     667.799     418.422
  O     -127.949     667.115     411.015
  O     -127.016     666.090     413.105
  H     -123.590     666.077     415.509
  H     -126.311     665.965     412.422
  H     -123.882     666.008     422.609
  H     -127.912     667.448     417.799
  H     -124.454     668.945     417.475
  H     -125.701     666.523     416.060
  H     -121.770     666.685     422.034
  H     -125.342     667.499     414.003
  H     -121.485     667.517     420.555
  H     -126.099     670.105     414.734
  H     -127.701     667.499     415.013
  H     -128.425     669.106     415.096
  P     -123.169     668.670     412.960
  C     -121.483     666.923     413.801
  O     -121.662     668.188     413.197
  O     -122.995     670.175     412.430
  O     -123.923     667.865     411.940
  H     -123.162     670.216     411.472
  H     -120.458     666.852     414.163
  H     -121.662     666.145     413.061
  H     -122.169     666.791     414.651
  H     -130.564     665.391     414.282
  H     -128.964     665.746     414.890
  H     -129.164     664.659     413.536

 3  4  5  6  7  8  9  10  11  12  23  26  30  31 0
 6-311+G(2d,p)
 ****
 33  35  36  37  38 0
 6-311+G(2d,p)
 ****
 1  2  13  14  15  16  17  18  19  20  21  22  24  25 0
 3-21G
 ****
 27  28  29  32  34  39  40  41  42  43  44  45  46  47  48  49 0
 3-21G
 ****


