%nproc=1
%NoSave
%Mem=1900MB
#P OB98/GEN NMR

erre ene a

0 1
  C      191.183     128.520      95.198
  O      192.572     128.541      94.938
  H      190.653     128.347      94.258
  H      190.860     129.478      95.614
  H      190.944     127.712      95.895
  P      193.528     128.897      96.181
  C      194.119     131.207      95.119
  O      193.530     130.505      96.204
  C      193.303     132.457      94.800
  O      191.914     132.121      94.595
  C      193.303     133.512      95.905
  O      194.494     134.279      95.953
  C      192.111     134.345      95.467
  O      192.478     135.156      94.334
  C      191.112     133.239      95.065
  N      190.243     132.822      96.169
  C      189.069     133.561      96.355
  O      188.798     134.509      95.622
  N      188.239     133.227      97.402
  C      188.540     132.231      98.178
  N      187.680     131.951      99.194
  C      189.758     131.419      98.008
  C      190.554     131.764      96.999
  O      194.991     128.553      95.633
  O      193.183     128.249      97.480
  H      191.724     135.748      94.159
  H      195.675     128.876      96.272
  H      189.974     130.607      98.689
  H      191.469     131.212      96.812
  H      190.482     133.565      94.228
  H      191.753     135.026      96.240
  H      193.084     133.068      96.883
  H      193.683     132.872      93.858
  H      186.884     132.563      99.319
  H      194.142     130.540      94.250
  H      187.900     131.299      99.936
  H      195.144     131.497      95.373
  P      195.427     134.107      97.248
  C      195.896     136.666      97.092
  O      195.561     135.555      97.920
  O      196.877     133.855      96.620
  O      195.019     133.008      98.179
  H      197.397     133.246      97.180
  H      195.946     137.553      97.688
  H      195.148     136.786      96.336
  H      196.845     136.493      96.630

 6  7  8  9  10  11  12  13  14  15  16  26  30  31  32  33  35 0
 6-311+G(2d,p)
 ****
 37  38 0
 6-311+G(2d,p)
 ****
 1  2  3  4  5  17  18  19  20  21  22  23  24  25 0
 3-21G
 ****
 27  28  29  34  36  39  40  41  42  43  44  45  46 0
 3-21G
 ****


