%nproc=1
%NoSave
%Mem=1900MB
#P OB98/GEN NMR

erre ene a

0 1
  C     -708.823     126.098    -287.497
  O     -709.189     124.755    -287.265
  P     -708.319     123.912    -286.208
  C     -710.064     123.348    -284.363
  O     -709.326     122.880    -285.500
  C     -711.289     122.483    -284.119
  O     -712.220     122.648    -285.226
  C     -710.992     120.983    -283.984
  O     -711.763     120.442    -282.885
  C     -711.557     120.386    -285.265
  O     -711.912     119.018    -285.118
  C     -712.733     121.334    -285.520
  N     -715.335     118.478    -288.784
  C     -715.173     118.327    -287.414
  N     -715.741     117.241    -286.850
  N     -714.513     119.171    -286.678
  C     -714.029     120.234    -287.357
  C     -714.133     120.494    -288.707
  C     -714.817     119.513    -289.526
  O     -714.908     119.537    -290.755
  N     -713.534     121.695    -289.036
  C     -713.057     122.156    -287.897
  N     -713.294     121.281    -286.859
  O     -708.023     124.997    -285.054
  O     -707.049     123.328    -286.730
  H     -711.157     118.568    -284.692
  H     -707.051     125.066    -284.907
  H     -715.841     117.778    -289.312
  H     -712.518     123.079    -287.763
  H     -713.545     121.126    -284.814
  H     -710.802     120.467    -286.052
  H     -716.288     116.555    -287.364
  H     -709.930     120.744    -283.843
  H     -715.655     117.115    -285.847
  H     -711.809     122.856    -283.217
  H     -710.371     124.384    -284.545
  H     -709.397     123.330    -283.490
  P     -711.026     119.322    -281.993
  C     -713.129     119.332    -280.459
  O     -712.189     118.570    -281.196
  O     -710.270     120.194    -280.862
  O     -710.080     118.445    -282.764
  H     -709.516     119.690    -280.506
  H     -713.030     120.417    -280.652
  H     -712.970     119.167    -279.387
  H     -714.132     119.009    -280.725
  H     -709.486     126.529    -288.218
  H     -707.820     126.135    -287.868
  H     -708.886     126.648    -286.581

 3  4  5  6  7  8  9  10  11  12  23  26  30  31  33  0
 6-311+G(2d,p)
 ****
 35  36  37  38 0
 6-311+G(2d,p)
 ****
 1  2  13  14  15  16  17  18  19  20  21  22  24  25  27  28  29 0
 3-21G
 ****
 32  34  39  40  41  42  43  44  45  46  47  48  49 0
 3-21G
 ****


