%nproc=1
%NoSave
%Mem=1900MB
#P OB98/GEN NMR

erre ene a

0 1
  C      181.522      39.719      33.358
  O      181.364      39.871      31.967
  P      181.829      38.782      30.899
  C      184.160      39.934      30.625
  O      183.431      38.738      30.877
  C      185.664      39.718      30.846
  O      185.868      39.241      32.202
  C      186.224      38.638      29.905
  O      187.497      38.954      29.351
  C      186.122      37.371      30.742
  O      186.970      36.323      30.294
  C      186.405      37.902      32.145
  N      186.971      33.912      35.240
  C      187.907      34.523      34.430
  N      189.086      33.877      34.295
  N      187.686      35.641      33.789
  C      186.424      36.110      33.932
  C      185.412      35.592      34.707
  C      185.680      34.375      35.438
  O      184.844      33.737      36.077
  N      184.245      36.291      34.555
  C      184.538      37.215      33.661
  N      185.840      37.122      33.227
  O      181.108      38.779      29.589
  O      181.465      37.403      31.658
  H      186.897      36.281      29.323
  H      181.195      36.760      30.972
  H      187.174      33.006      35.646
  H      183.843      37.950      33.270
  H      187.476      37.962      32.343
  H      185.095      37.004      30.662
  H      189.229      32.947      34.657
  H      185.585      38.531      29.021
  H      189.684      34.166      33.524
  H      186.186      40.676      30.747
  H      183.780      40.681      31.332
  H      183.966      40.298      29.615
  P      188.101      38.542      27.932
  C      189.474      36.882      29.327
  O      188.842      37.129      28.084
  O      189.314      39.555      27.688
  O      187.133      38.613      26.797
  H      189.335      39.819      26.747
  H      190.158      36.037      29.209
  H      188.720      36.627      30.076
  H      190.041      37.757      29.656
  H      181.133      40.581      33.858
  H      182.561      39.612      33.589
  H      180.992      38.849      33.684

 3  4  5  6  7  8  9  10  11  12  23  26  30  31 0
 6-311+G(2d,p)
 ****
 33  35  36  37  38 0
 6-311+G(2d,p)
 ****
 1  2  13  14  15  16  17  18  19  20  21  22  24  25 0
 3-21G
 ****
 27  28  29  32  34  39  40  41  42  43  44  45  46  47  48  49 0
 3-21G
 ****


