%nproc=1
%NoSave
%Mem=1900MB
#P OB98/GEN NMR

erre ene a

0 1
  C     -180.091     429.338    -279.797
  O     -179.065     428.639    -279.092
  P     -178.035     429.478    -278.188
  C     -178.044     427.828    -276.216
  O     -177.258     428.463    -277.214
  C     -178.622     426.487    -276.691
  O     -177.567     425.594    -277.133
  C     -179.435     425.733    -275.625
  O     -180.509     425.078    -276.303
  C     -178.429     424.729    -275.100
  O     -179.048     423.654    -274.408
  C     -177.708     424.359    -276.401
  N     -176.423     423.721    -276.167
  C     -176.429     422.347    -275.914
  O     -177.499     421.748    -275.799
  N     -175.226     421.700    -275.772
  C     -174.128     422.391    -275.732
  N     -172.957     421.713    -275.611
  C     -174.099     423.863    -275.815
  C     -175.267     424.453    -276.053
  O     -178.607     430.680    -277.511
  O     -176.899     429.896    -279.240
  H     -178.367     422.990    -274.179
  H     -176.556     430.781    -279.002
  H     -173.170     424.403    -275.690
  H     -175.353     425.528    -276.136
  H     -178.325     423.687    -277.013
  H     -177.741     425.226    -274.410
  H     -179.849     426.392    -274.852
  H     -179.263     426.687    -277.562
  H     -172.993     420.703    -275.534
  H     -178.867     428.489    -275.931
  H     -172.054     422.172    -275.624
  H     -177.436     427.694    -275.314
  P     -181.965     425.049    -275.621
  C     -183.831     424.315    -277.271
  O     -182.835     423.926    -276.357
  O     -182.616     426.402    -276.198
  O     -181.989     425.069    -274.128
  H     -183.309     426.706    -275.580
  H     -184.119     423.450    -277.871
  H     -183.470     425.099    -277.945
  H     -184.711     424.672    -276.727
  H     -180.686     428.639    -280.347
  H     -179.646     430.037    -280.474
  H     -180.710     429.862    -279.099

 3  4  5  6  7  8  9  10  11  12  13  23  27  28  29  30  32 0
 6-311+G(2d,p)
 ****
 34  35 0
 6-311+G(2d,p)
 ****
 1  2  14  15  16  17  18  19  20  21  22  24  25  26 0
 3-21G
 ****
 31  33  36  37  38  39  40  41  42  43  44  45  46 0
 3-21G
 ****


