%nproc=1
%NoSave
%Mem=1900MB
#P OB98/GEN NMR

erre ene a

0 1
  C     -292.279    -446.585    -474.237
  O     -292.964    -445.996    -475.321
  H     -291.468    -445.920    -473.929
  H     -291.853    -447.546    -474.541
  H     -292.957    -446.731    -473.389
  P     -294.257    -446.771    -475.872
  C     -294.069    -446.563    -478.454
  O     -294.654    -446.058    -477.259
  C     -294.065    -445.495    -479.546
  O     -293.028    -444.513    -479.249
  C     -293.789    -446.036    -480.957
  O     -294.556    -445.266    -481.890
  C     -292.317    -445.705    -481.165
  O     -291.954    -445.661    -482.544
  C     -292.243    -444.360    -480.443
  N     -287.909    -442.855    -482.518
  C     -289.147    -443.107    -483.095
  N     -289.239    -442.930    -484.433
  N     -290.191    -443.497    -482.419
  C     -289.959    -443.600    -481.085
  C     -288.790    -443.383    -480.396
  C     -287.627    -442.977    -481.159
  O     -286.508    -442.760    -480.707
  N     -288.958    -443.627    -479.052
  C     -290.228    -443.981    -478.933
  N     -290.874    -443.985    -480.140
  O     -295.406    -446.295    -474.860
  O     -294.141    -448.255    -475.925
  H     -290.987    -445.516    -482.598
  H     -295.501    -446.934    -474.131
  H     -287.134    -442.567    -483.085
  H     -290.719    -444.250    -478.006
  H     -292.673    -443.549    -481.034
  H     -291.686    -446.453    -480.670
  H     -288.488    -442.587    -485.006
  H     -294.009    -447.105    -481.084
  H     -290.144    -443.067    -484.869
  H     -295.021    -444.962    -479.515
  H     -294.646    -447.428    -478.797
  H     -293.038    -446.883    -478.241
  P     -295.038    -445.980    -483.242
  C     -294.091    -444.472    -485.138
  O     -295.220    -444.852    -484.364
  O     -296.556    -446.388    -482.906
  O     -294.223    -447.166    -483.639
  H     -296.810    -447.171    -483.428
  H     -294.377    -443.714    -485.837
  H     -293.719    -445.324    -485.668
  H     -293.327    -444.092    -484.492

 6  7  8  9  10  11  12  13  14  15  26  29  33  34 0
 6-311+G(2d,p)
 ****
 36  38  39  40  41 0
 6-311+G(2d,p)
 ****
 1  2  3  4  5  16  17  18  19  20  21  22  23  24  25 0
 3-21G
 ****
 27  28  30  31  32  35  37  42  43  44  45  46  47 0
 3-21G
 ****
 48  49 0
 3-21G
 ****


