%nproc=1
%NoSave
%Mem=1900MB
#P OB98/GEN NMR

erre ene a

0 1
  C      447.848    -400.623    -551.557
  O      447.680    -401.372    -552.752
  P      447.318    -400.547    -554.081
  C      449.669    -400.895    -555.165
  O      448.704    -399.988    -554.654
  C      450.148    -400.420    -556.536
  O      449.066    -400.508    -557.500
  C      450.631    -398.978    -556.568
  O      451.967    -398.890    -556.114
  C      450.464    -398.634    -558.053
  O      451.571    -399.133    -558.822
  C      449.166    -399.373    -558.411
  N      446.219    -396.068    -560.842
  C      447.460    -396.572    -561.185
  N      447.966    -396.176    -562.375
  N      448.140    -397.400    -560.435
  C      447.516    -397.701    -559.271
  C      446.299    -397.257    -558.811
  C      445.536    -396.382    -559.677
  O      444.392    -395.985    -559.464
  N      446.006    -397.758    -557.571
  C      447.035    -398.539    -557.301
  N      447.971    -398.557    -558.304
  O      446.580    -399.245    -553.510
  O      446.493    -401.286    -555.080
  H      451.636    -400.101    -558.701
  H      445.607    -399.350    -553.571
  H      445.734    -395.444    -561.463
  H      447.145    -399.126    -556.401
  H      449.190    -399.777    -559.426
  H      450.428    -397.550    -558.220
  H      447.509    -395.522    -562.990
  H      449.971    -398.336    -555.966
  H      448.875    -396.532    -562.636
  H      450.940    -401.102    -556.872
  H      449.223    -401.884    -555.259
  H      450.512    -400.953    -554.467
  P      452.466    -397.480    -555.536
  C      450.698    -397.594    -553.633
  O      451.247    -396.847    -554.708
  O      452.553    -396.554    -556.842
  O      453.772    -397.530    -554.812
  H      453.312    -395.943    -556.760
  H      450.301    -396.894    -552.889
  H      451.449    -398.231    -553.156
  H      449.883    -398.212    -554.003
  H      448.085    -401.286    -550.751
  H      446.942    -400.099    -551.334
  H      448.644    -399.920    -551.686

 3  4  5  6  7  8  9  10  11  12  23  26  30  31 0
 6-311+G(2d,p)
 ****
 33  35  36  37  38 0
 6-311+G(2d,p)
 ****
 1  2  13  14  15  16  17  18  19  20  21  22  24  25 0
 3-21G
 ****
 27  28  29  32  34  39  40  41  42  43  44  45  46  47  48  49 0
 3-21G
 ****


