%nproc=1
%NoSave
%Mem=1900MB
#P OB98/GEN NMR

erre ene a

0 1
  C      -27.387      60.824     212.105
  O      -26.412      60.494     211.138
  H      -28.053      59.968     212.237
  H      -27.979      61.682     211.779
  H      -26.909      61.045     213.064
  P      -25.378      61.628     210.678
  C      -23.251      60.393     209.881
  O      -24.485      60.988     209.511
  C      -22.923      59.205     208.968
  O      -23.691      58.048     209.406
  C      -23.266      59.446     207.488
  O      -22.344      58.678     206.705
  C      -24.660      58.856     207.406
  O      -25.061      58.665     206.072
  C      -24.487      57.613     208.282
  N      -25.757      57.041     208.701
  C      -26.368      56.168     207.798
  O      -25.841      55.926     206.713
  N      -27.577      55.613     208.134
  C      -28.156      55.954     209.242
  N      -29.359      55.379     209.508
  C      -27.572      56.919     210.196
  C      -26.380      57.416     209.868
  O      -24.603      62.282     211.772
  O      -26.290      62.687     209.896
  H      -25.938      58.220     206.030
  H      -26.429      63.475     210.453
  H      -28.103      57.185     211.097
  H      -25.871      58.133     210.505
  H      -23.914      56.839     207.755
  H      -25.391      59.535     207.856
  H      -23.217      60.500     207.205
  H      -21.864      58.948     209.091
  H      -29.727      54.732     208.822
  H      -23.347      60.052     210.916
  H      -29.911      55.583     210.328
  H      -22.444      61.131     209.827
  P      -20.950      59.267     206.174
  C      -19.634      57.049     206.164
  O      -20.157      58.121     205.385
  O      -20.141      59.953     207.227
  O      -21.351      60.303     205.019
  H      -20.690      61.020     204.991
  H      -19.130      56.355     205.524
  H      -20.435      56.551     206.669
  H      -18.944      57.435     206.884

 6  7  8  9  10  11  12  13  14  15  16  26  30  31  32  33  35 0
 6-311+G(2d,p)
 ****
 37  38 0
 6-311+G(2d,p)
 ****
 1  2  3  4  5  17  18  19  20  21  22  23  24  25 0
 3-21G
 ****
 27  28  29  34  36  39  40  41  42  43  44  45  46 0
 3-21G
 ****


