%nproc=1
%NoSave
%Mem=1900MB
#P OB98/GEN NMR

erre ene a

0 1
  C     -161.919     224.967      -8.983
  O     -161.860     225.550     -10.272
  H     -160.972     225.154      -8.469
  H     -162.067     223.886      -9.051
  H     -162.729     225.414      -8.402
  P     -163.075     225.280     -11.281
  C     -163.848     227.697     -10.776
  O     -164.216     226.325     -10.871
  C     -164.395     228.468     -11.973
  O     -163.828     227.959     -13.197
  C     -165.903     228.343     -12.131
  O     -166.578     229.151     -11.187
  C     -166.074     228.748     -13.581
  O     -166.045     230.172     -13.732
  C     -164.831     228.098     -14.231
  N     -165.125     226.811     -14.852
  C     -165.630     226.860     -16.156
  O     -165.798     227.939     -16.720
  N     -165.951     225.678     -16.776
  C     -165.770     224.551     -16.161
  N     -166.110     223.419     -16.833
  C     -165.228     224.456     -14.793
  C     -164.934     225.613     -14.203
  O     -163.548     223.864     -11.404
  O     -162.540     225.857     -12.676
  H     -166.209     230.343     -14.681
  H     -162.071     225.163     -13.175
  H     -165.088     223.495     -14.322
  H     -164.528     225.632     -13.196
  H     -164.407     228.759     -14.997
  H     -167.019     228.389     -13.987
  H     -166.206     227.296     -12.032
  H     -164.093     229.519     -11.875
  H     -166.488     223.532     -17.767
  H     -162.754     227.738     -10.767
  H     -165.931     222.487     -16.491
  H     -164.220     228.134      -9.843
  P     -167.953     228.659     -10.528
  C     -166.655     227.401      -8.687
  O     -167.591     227.296      -9.756
  O     -169.114     228.578     -11.459
  O     -168.172     229.698      -9.328
  H     -168.463     230.580      -9.664
  H     -166.497     226.435      -8.255
  H     -167.038     228.066      -7.942
  H     -165.727     227.781      -9.061

 6  7  8  9  10  11  12  13  14  15  16  26  30  31  32  33  35 0
 6-311+G(2d,p)
 ****
 37  38 0
 6-311+G(2d,p)
 ****
 1  2  3  4  5  17  18  19  20  21  22  23  24  25 0
 3-21G
 ****
 27  28  29  34  36  39  40  41  42  43  44  45  46 0
 3-21G
 ****


