%nproc=1
%NoSave
%Mem=1900MB
#P OB98/GEN NMR

erre ene a

0 1
  C      178.496    -570.999     197.171
  O      179.532    -570.534     198.048
  P      179.260    -569.610     199.328
  C      180.310    -571.258     201.028
  O      180.365    -569.961     200.443
  C      181.712    -571.730     201.430
  O      182.462    -572.132     200.258
  C      182.589    -570.673     202.087
  O      182.192    -570.393     203.419
  C      183.969    -571.316     201.967
  O      184.214    -572.235     203.039
  C      183.860    -572.079     200.634
  N      184.662    -571.490     199.571
  C      186.049    -571.622     199.684
  O      186.543    -572.140     200.685
  N      186.833    -571.144     198.665
  C      186.294    -570.498     197.678
  N      187.121    -570.063     196.692
  C      184.849    -570.219     197.592
  C      184.097    -570.742     198.561
  O      177.855    -569.675     199.837
  O      179.640    -568.122     198.868
  H      179.135    -567.478     199.397
  H      184.221    -571.717     203.863
  H      184.447    -569.640     196.777
  H      183.023    -570.594     198.563
  H      184.162    -573.126     200.772
  H      184.771    -570.571     201.990
  H      182.558    -569.754     201.491
  H      181.599    -572.600     202.093
  H      188.111    -570.284     196.776
  H      179.904    -571.957     200.289
  H      186.802    -569.568     195.868
  H      179.639    -571.236     201.894
  P      182.858    -569.114     204.120
  C      180.718    -567.731     204.620
  O      181.790    -568.503     205.141
  O      182.930    -568.029     202.945
  O      184.211    -569.367     204.713
  H      183.766    -567.532     203.010
  H      179.869    -567.805     205.299
  H      180.414    -568.076     203.629
  H      181.030    -566.682     204.559
  H      178.927    -571.596     196.395
  H      177.992    -570.160     196.738
  H      177.796    -571.588     197.726

 3  4  5  6  7  8  9  10  11  12  13  24  27  28  29  30  32 0
 6-311+G(2d,p)
 ****
 34  35 0
 6-311+G(2d,p)
 ****
 1  2  14  15  16  17  18  19  20  21  22  23  25  26 0
 3-21G
 ****
 31  33  36  37  38  39  40  41  42  43  44  45  46 0
 3-21G
 ****


