%nproc=1
%NoSave
%Mem=1900MB
#P OB98/GEN NMR

erre ene a

0 1
  C      486.921     -22.242     -98.268
  O      486.776     -22.182     -96.860
  P      487.901     -22.895     -95.963
  C      486.501     -22.388     -93.829
  O      487.172     -23.366     -94.611
  C      485.467     -23.051     -92.924
  O      484.267     -23.363     -93.661
  C      485.922     -24.376     -92.326
  O      486.754     -24.199     -91.186
  C      484.591     -24.989     -91.923
  O      484.146     -24.425     -90.672
  C      483.670     -24.544     -93.068
  N      481.167     -25.868     -97.263
  C      481.205     -24.655     -96.602
  N      480.419     -23.676     -97.097
  N      481.946     -24.422     -95.552
  C      482.677     -25.497     -95.163
  C      482.727     -26.750     -95.740
  C      481.891     -26.996     -96.893
  O      481.770     -28.063     -97.488
  N      483.586     -27.574     -95.070
  C      484.069     -26.832     -94.089
  N      483.508     -25.574     -94.078
  O      488.818     -21.677     -95.479
  O      488.688     -23.947     -96.671
  H      484.682     -24.843     -89.971
  H      489.675     -22.010     -95.161
  H      480.575     -25.999     -98.063
  H      484.795     -27.156     -93.360
  H      482.675     -24.266     -92.706
  H      484.647     -26.073     -91.777
  H      479.775     -23.811     -97.865
  H      486.402     -25.012     -93.078
  H      480.377     -22.795     -96.595
  H      485.200     -22.345     -92.127
  H      486.005     -21.677     -94.492
  H      487.239     -21.840     -93.226
  P      487.677     -25.442     -90.770
  C      487.883     -24.616     -88.311
  O      487.447     -25.632     -89.193
  O      489.156     -24.842     -90.873
  O      487.499     -26.660     -91.611
  H      489.805     -25.552     -91.050
  H      487.420     -24.775     -87.332
  H      487.596     -23.627     -88.679
  H      488.975     -24.662     -88.202
  H      486.105     -21.729     -98.733
  H      486.925     -23.265     -98.583
  H      487.842     -21.778     -98.552

 3  4  5  6  7  8  9  10  11  12  23  26  30  31 0
 6-311+G(2d,p)
 ****
 33  35  36  37  38 0
 6-311+G(2d,p)
 ****
 1  2  13  14  15  16  17  18  19  20  21  22  24  25 0
 3-21G
 ****
 27  28  29  32  34  39  40  41  42  43  44  45  46  47  48  49 0
 3-21G
 ****


