%nproc=1
%NoSave
%Mem=1900MB
#P OB98/GEN NMR

erre ene a

0 1
  C      -65.372    -631.492    -187.553
  O      -66.459    -630.634    -187.846
  P      -66.233    -629.342    -188.773
  C      -65.303    -626.945    -188.398
  O      -65.694    -628.175    -187.827
  C      -64.364    -626.168    -187.467
  O      -63.197    -626.994    -187.216
  C      -63.831    -624.856    -188.033
  O      -63.346    -624.053    -186.959
  C      -62.675    -625.337    -188.880
  O      -61.738    -624.293    -189.161
  C      -62.110    -626.525    -188.051
  N      -61.626    -627.613    -188.917
  C      -60.455    -627.367    -189.622
  O      -59.795    -626.332    -189.489
  N      -60.106    -628.310    -190.547
  C      -60.838    -629.417    -190.853
  O      -60.690    -630.082    -191.880
  C      -61.932    -629.746    -189.917
  C      -62.288    -628.826    -189.015
  O      -67.736    -628.901    -189.124
  O      -65.429    -629.593    -190.007
  H      -62.199    -623.656    -189.756
  H      -68.001    -629.255    -189.989
  H      -59.340    -628.063    -191.162
  H      -62.443    -630.695    -190.036
  H      -63.120    -629.009    -188.344
  H      -61.287    -626.203    -187.401
  H      -63.054    -625.698    -189.843
  H      -64.562    -624.295    -188.627
  H      -64.872    -625.991    -186.508
  H      -66.201    -626.357    -188.624
  H      -64.794    -627.120    -189.351
  P      -62.936    -622.533    -187.276
  C      -60.880    -621.356    -188.256
  O      -61.467    -622.594    -187.934
  O      -63.100    -621.564    -186.164
  O      -63.867    -622.163    -188.531
  H      -63.923    -621.197    -188.628
  H      -59.790    -621.458    -188.185
  H      -61.206    -620.550    -187.571
  H      -61.141    -621.076    -189.284
  H      -65.708    -632.292    -186.928
  H      -64.608    -630.940    -187.046
  H      -64.978    -631.892    -188.464

 3  4  5  6  7  8  9  10  11  12  13  23  28  29  30  31  32 0
 6-311+G(2d,p)
 ****
 33  34 0
 6-311+G(2d,p)
 ****
 1  2  14  15  16  17  18  19  20  21  22  24  25  26  27 0
 3-21G
 ****
 35  36  37  38  39  40  41  42  43  44  45 0
 3-21G
 ****


