%nproc=1
%NoSave
%Mem=1900MB
#P OB98/GEN NMR

erre ene a

0 1
  C      189.270     -89.258      14.799
  O      190.625     -89.613      14.993
  H      188.908     -89.697      13.866
  H      188.679     -89.658      15.626
  H      189.152     -88.172      14.772
  P      191.715     -88.885      14.069
  C      194.073     -89.541      13.200
  O      192.838     -89.987      13.740
  C      195.007     -90.722      12.948
  O      195.632     -91.094      14.211
  C      194.310     -91.970      12.385
  O      195.178     -92.579      11.423
  C      194.196     -92.882      13.594
  O      194.121     -94.257      13.240
  C      195.461     -92.514      14.365
  N      196.833     -95.984      17.819
  C      197.302     -95.705      16.585
  N      196.914     -94.721      15.747
  C      195.983     -93.943      16.328
  C      195.411     -94.099      17.580
  C      195.862     -95.194      18.338
  N      195.342     -95.528      19.567
  N      194.447     -93.131      17.791
  C      194.423     -92.423      16.679
  N      195.331     -92.879      15.765
  O      192.444     -87.904      15.106
  O      191.172     -88.149      12.891
  H      194.848     -94.464      12.620
  H      191.964     -87.057      15.149
  H      198.087     -96.360      16.216
  H      193.752     -91.602      16.473
  H      196.354     -93.015      13.975
  H      193.297     -92.622      14.166
  H      193.338     -91.762      11.925
  H      195.811     -90.394      12.280
  H      194.547     -88.859      13.915
  H      195.652     -96.390      19.989
  H      194.546     -95.016      19.917
  H      193.886     -88.998      12.268
  P      194.853     -92.332       9.873
  C      196.393     -92.347       7.773
  O      196.029     -92.977       8.995
  O      195.081     -90.756       9.696
  O      193.471     -92.737       9.473
  H      194.469     -90.401       9.028
  H      197.187     -92.896       7.311
  H      196.719     -91.347       7.970
  H      195.547     -92.324       7.118

 6  7  8  9  10  11  12  13  14  15  25  28  32  33  34  35 0
 6-311+G(2d,p)
 ****
 36  39  40 0
 6-311+G(2d,p)
 ****
 1  2  3  4  5  16  17  18  19  20  21  22  23  24 0
 3-21G
 ****
 26  27  29  30  31  37  38  41  42  43  44  45  46  47 0
 3-21G
 ****
 48 0
 3-21G
 ****


