%nproc=1
%NoSave
%Mem=1900MB
#P OB98/GEN NMR

erre ene a

0 1
  C       -6.782     272.394    -727.145
  O       -7.246     271.193    -726.511
  P       -8.470     270.407    -727.190
  C      -10.394     271.550    -725.855
  O       -9.773     271.353    -727.108
  C      -11.740     272.249    -726.024
  O      -12.680     271.425    -726.759
  C      -12.430     272.603    -724.712
  O      -11.940     273.812    -724.160
  C      -13.872     272.780    -725.165
  O      -14.031     274.100    -725.757
  C      -14.008     271.689    -726.247
  N      -18.267     269.514    -724.600
  C      -18.052     270.801    -725.046
  N      -19.118     271.618    -725.082
  N      -16.882     271.238    -725.446
  C      -15.907     270.300    -725.376
  C      -16.002     268.999    -724.944
  C      -17.305     268.526    -724.498
  O      -17.551     267.403    -724.056
  N      -14.795     268.356    -725.002
  C      -13.975     269.255    -725.508
  N      -14.602     270.466    -725.730
  O       -8.793     269.268    -726.109
  O       -8.155     269.834    -728.529
  H      -13.288     274.214    -726.388
  H       -9.186     268.496    -726.567
  H      -19.198     269.229    -724.297
  H      -12.915     269.089    -725.714
  H      -14.632     272.016    -727.089
  H      -14.587     272.714    -724.347
  H      -20.052     271.337    -724.837
  H      -12.361     271.756    -723.994
  H      -18.981     272.564    -725.458
  H      -11.575     273.182    -726.599
  H       -9.743     272.152    -725.197
  H      -10.508     270.577    -725.353
  P      -10.824     273.716    -723.003
  C      -12.339     273.875    -720.908
  O      -11.549     273.054    -721.733
  O      -10.625     275.256    -722.582
  O       -9.537     273.085    -723.440
  H       -9.694     275.403    -722.291
  H      -12.888     273.235    -720.192
  H      -13.081     274.438    -721.487
  H      -11.715     274.567    -720.342
  H       -5.969     272.803    -726.582
  H       -7.580     273.106    -727.188
  H       -6.451     272.169    -728.137

 3  4  5  6  7  8  9  10  11  12  23  26  30  31 0
 6-311+G(2d,p)
 ****
 33  35  36  37  38 0
 6-311+G(2d,p)
 ****
 1  2  13  14  15  16  17  18  19  20  21  22  24  25 0
 3-21G
 ****
 27  28  29  32  34  39  40  41  42  43  44  45  46  47  48  49 0
 3-21G
 ****


