%nproc=1
%NoSave
%Mem=1900MB
#P OB98/GEN NMR

erre ene a

0 1
  C       56.524     -58.310     -84.455
  O       56.942     -57.219     -85.257
  P       55.862     -56.530     -86.220
  C       56.891     -57.588     -88.356
  O       55.736     -57.428     -87.545
  C       56.574     -58.425     -89.597
  O       55.936     -59.667     -89.195
  C       55.630     -57.728     -90.582
  O       55.972     -58.113     -91.921
  C       54.279     -58.336     -90.267
  O       53.388     -58.237     -91.378
  C       54.686     -59.765     -89.906
  N       50.449     -62.517     -90.028
  C       51.341     -62.236     -91.043
  N       51.008     -62.677     -92.276
  N       52.460     -61.584     -90.866
  C       52.657     -61.198     -89.581
  C       51.854     -61.431     -88.487
  C       50.613     -62.143     -88.700
  O       49.768     -62.400     -87.850
  N       52.405     -60.915     -87.343
  C       53.516     -60.332     -87.745
  N       53.694     -60.445     -89.100
  O       56.622     -55.216     -86.727
  O       54.572     -56.179     -85.559
  H       53.134     -57.298     -91.454
  H       56.262     -54.430     -86.276
  H       49.593     -63.013     -90.218
  H       54.208     -59.797     -87.108
  H       54.863     -60.371     -90.803
  H       53.822     -57.820     -89.416
  H       50.130     -63.125     -92.490
  H       55.624     -56.635     -90.509
  H       51.623     -62.445     -93.045
  H       57.516     -58.693     -90.088
  H       57.666     -58.090     -87.776
  H       57.270     -56.604     -88.653
  P       55.713     -57.008     -93.059
  C       53.437     -57.923     -93.929
  O       54.123     -56.912     -93.219
  O       56.188     -57.741     -94.398
  O       56.426     -55.717     -92.831
  H       56.457     -57.084     -95.066
  H       52.752     -58.434     -93.246
  H       54.118     -58.658     -94.367
  H       52.857     -57.460     -94.732
  H       57.349     -58.660     -83.871
  H       56.171     -59.100     -85.084
  H       55.736     -57.993     -83.804

 3  4  5  6  7  8  9  10  11  12  23  26  30  31 0
 6-311+G(2d,p)
 ****
 33  35  36  37  38 0
 6-311+G(2d,p)
 ****
 1  2  13  14  15  16  17  18  19  20  21  22  24  25 0
 3-21G
 ****
 27  28  29  32  34  39  40  41  42  43  44  45  46  47  48  49 0
 3-21G
 ****


