%nproc=1
%NoSave
%Mem=1900MB
#P OB98/GEN NMR

erre ene a

0 1
  C     -248.202    -166.041      66.751
  O     -246.809    -165.789      66.811
  H     -248.381    -166.864      66.057
  H     -248.728    -165.151      66.388
  H     -248.578    -166.320      67.738
  P     -246.347    -164.564      67.740
  C     -246.851    -165.709      70.011
  O     -247.199    -164.679      69.096
  C     -246.311    -165.111      71.307
  O     -247.278    -164.216      71.901
  C     -245.955    -166.141      72.372
  O     -244.657    -166.667      72.156
  C     -246.044    -165.301      73.640
  O     -244.850    -164.510      73.820
  C     -247.250    -164.401      73.342
  N     -249.829    -166.035      77.368
  C     -248.511    -165.648      77.252
  N     -247.753    -165.732      78.368
  N     -247.972    -165.224      76.136
  C     -248.827    -165.246      75.089
  C     -250.156    -165.610      75.074
  C     -250.752    -166.025      76.327
  O     -251.934    -166.301      76.509
  N     -250.694    -165.480      73.818
  C     -249.684    -165.068      73.071
  N     -248.529    -164.919      73.797
  O     -246.983    -163.285      67.013
  O     -244.873    -164.410      67.911
  H     -244.916    -164.017      74.655
  H     -246.353    -162.541      67.081
  H     -250.201    -166.321      78.255
  H     -249.739    -164.859      72.008
  H     -247.140    -163.406      73.794
  H     -246.139    -165.924      74.532
  H     -248.021    -166.309      79.154
  H     -246.704    -166.943      72.415
  H     -246.768    -165.516      78.264
  H     -245.432    -164.507      71.047
  H     -246.084    -166.344      69.556
  H     -247.737    -166.315      70.225
  P     -244.344    -168.153      72.672
  C     -245.328    -169.294      70.552
  O     -245.388    -169.151      71.964
  O     -244.837    -168.114      74.199
  O     -242.912    -168.557      72.584
  H     -244.066    -168.079      74.793
  H     -246.079    -169.986      70.231
  H     -244.363    -169.660      70.271
  H     -245.498    -168.344      70.090

 6  7  8  9  10  11  12  13  14  15  26  29  33  34 0
 6-311+G(2d,p)
 ****
 36  38  39  40  41 0
 6-311+G(2d,p)
 ****
 1  2  3  4  5  16  17  18  19  20  21  22  23  24  25 0
 3-21G
 ****
 27  28  30  31  32  35  37  42  43  44  45  46  47 0
 3-21G
 ****
 48  49 0
 3-21G
 ****


