%nproc=1
%NoSave
%Mem=1900MB
#P OB98/GEN NMR

erre ene a

0 1
  C      102.278    -397.638    -392.839
  O      102.872    -396.527    -393.489
  P      104.290    -396.728    -394.203
  C      103.873    -397.865    -396.504
  O      104.189    -398.035    -395.129
  C      104.699    -398.829    -397.361
  O      106.118    -398.522    -397.199
  C      104.507    -400.307    -397.000
  O      104.623    -401.065    -398.215
  C      105.703    -400.588    -396.110
  O      106.009    -401.967    -396.000
  C      106.770    -399.749    -396.825
  N      107.947    -399.503    -395.992
  C      109.182    -399.886    -396.505
  O      109.337    -400.418    -397.603
  N      110.254    -399.700    -395.675
  C      110.208    -399.261    -394.385
  O      111.193    -399.226    -393.656
  C      108.876    -398.867    -393.896
  C      107.825    -399.006    -394.710
  O      105.245    -397.190    -393.001
  O      104.817    -395.518    -394.897
  H      106.746    -402.058    -395.371
  H      105.778    -396.439    -392.683
  H      111.162    -399.962    -396.034
  H      108.803    -398.496    -392.883
  H      106.830    -398.743    -394.366
  H      107.079    -400.246    -397.751
  H      105.503    -400.203    -395.103
  H      103.554    -400.522    -396.509
  H      104.449    -398.655    -398.415
  H      104.096    -396.839    -396.800
  H      102.801    -398.035    -396.656
  P      103.837    -402.462    -398.306
  C      101.745    -401.581    -399.599
  O      102.281    -402.108    -398.405
  O      104.018    -403.005    -396.808
  O      104.378    -403.390    -399.345
  H      103.883    -402.313    -396.138
  H      102.245    -401.987    -400.480
  H      101.854    -400.493    -399.593
  H      100.682    -401.826    -399.650
  H      101.341    -397.344    -392.415
  H      102.927    -397.986    -392.063
  H      102.117    -398.422    -393.549

 3  4  5  6  7  8  9  10  11  12  13  23  28  29  30  31  32 0
 6-311+G(2d,p)
 ****
 33  34 0
 6-311+G(2d,p)
 ****
 1  2  14  15  16  17  18  19  20  21  22  24  25  26 0
 3-21G
 ****
 27  35  36  37  38  39  40  41  42  43  44  45 0
 3-21G
 ****


