%nproc=1
%NoSave
%Mem=1900MB
#P OB98/GEN NMR

erre ene a

0 1
  C     -417.088    -230.357    -101.068
  O     -418.331    -230.374    -101.772
  P     -418.405    -229.581    -103.166
  C     -419.732    -231.331    -104.568
  O     -418.502    -230.650    -104.357
  C     -419.674    -232.737    -103.955
  O     -419.544    -232.685    -102.526
  C     -420.932    -233.548    -104.215
  O     -420.936    -234.060    -105.537
  C     -420.838    -234.631    -103.136
  O     -420.111    -235.781    -103.607
  C     -420.053    -233.918    -102.007
  N     -420.865    -233.702    -100.820
  C     -421.146    -234.840    -100.046
  O     -420.728    -235.944    -100.408
  N     -421.899    -234.689     -98.918
  C     -422.362    -233.526     -98.593
  N     -423.118    -233.443     -97.467
  C     -422.119    -232.306     -99.387
  C     -421.365    -232.465    -100.487
  O     -416.921    -228.986    -103.330
  O     -419.436    -228.499    -103.199
  H     -420.626    -236.121    -104.377
  H     -416.951    -228.135    -103.794
  H     -422.531    -231.357     -99.094
  H     -421.139    -231.622    -101.135
  H     -419.182    -234.520    -101.716
  H     -421.826    -234.979    -102.833
  H     -421.823    -232.936    -104.042
  H     -418.799    -233.259    -104.376
  H     -423.273    -234.301     -96.939
  H     -419.950    -231.394    -105.636
  H     -423.526    -232.584     -97.129
  H     -420.538    -230.742    -104.119
  P     -421.286    -233.054    -106.726
  C     -419.049    -232.938    -107.965
  O     -419.924    -232.293    -107.060
  O     -422.124    -231.909    -105.961
  O     -422.046    -233.607    -107.888
  H     -422.489    -231.279    -106.599
  H     -418.266    -232.233    -108.260
  H     -419.586    -233.254    -108.859
  H     -418.583    -233.803    -107.483
  H     -417.183    -230.921    -100.164
  H     -416.825    -229.347    -100.833
  H     -416.325    -230.791    -101.680

 3  4  5  6  7  8  9  10  11  12  13  21  23  27  28  29  30  32 0
 6-311+G(2d,p)
 ****
 34  35 0
 6-311+G(2d,p)
 ****
 1  2  14  15  16  17  18  19  20  22  24  25  26 0
 3-21G
 ****
 31  33  36  37  38  39  40  41  42  43  44  45  46 0
 3-21G
 ****


