%nproc=1
%NoSave
%Mem=1900MB
#P OB98/GEN NMR

erre ene a

0 1
  C      149.236    -347.589      42.014
  O      149.745    -348.903      41.781
  P      148.813    -350.171      42.070
  C      150.179    -351.854      40.657
  O      149.687    -351.510      41.947
  C      150.976    -353.161      40.729
  O      152.209    -352.986      41.470
  C      150.234    -354.266      41.469
  O      149.098    -354.811      40.827
  C      151.356    -355.224      41.829
  O      151.675    -356.093      40.742
  C      152.524    -354.247      42.103
  N      152.792    -354.071      43.530
  C      153.098    -355.227      44.241
  O      153.111    -356.348      43.736
  N      153.360    -355.056      45.575
  C      153.312    -353.876      46.255
  O      153.532    -353.781      47.456
  C      152.955    -352.692      45.455
  C      152.715    -352.842      44.151
  O      147.510    -350.195      41.349
  O      148.566    -350.073      43.656
  H      152.401    -356.676      41.036
  H      147.631    -350.299      43.826
  H      153.593    -355.881      46.103
  H      152.899    -351.737      45.967
  H      152.451    -351.982      43.543
  H      153.447    -354.611      41.633
  H      151.090    -355.858      42.677
  H      149.863    -353.847      42.414
  H      151.242    -353.465      39.715
  H      150.806    -351.047      40.273
  H      149.334    -351.943      39.965
  P      147.596    -354.484      41.277
  C      147.098    -353.875      38.806
  O      146.658    -354.533      39.975
  O      147.392    -353.356      42.227
  O      147.187    -355.854      42.019
  H      146.570    -355.637      42.746
  H      146.335    -353.995      38.032
  H      148.031    -354.318      38.449
  H      147.237    -352.810      38.995
  H      149.987    -346.867      41.770
  H      148.966    -347.489      43.045
  H      148.373    -347.427      41.402

 3  4  5  6  7  8  9  10  11  12  13  23  28  29  30  31  32 0
 6-311+G(2d,p)
 ****
 33  34 0
 6-311+G(2d,p)
 ****
 1  2  14  15  16  17  18  19  20  21  22  24  25  26  27 0
 3-21G
 ****
 35  36  37  38  39  40  41  42  43  44  45 0
 3-21G
 ****


