%nproc=1
%NoSave
%Mem=1900MB
#P OB98/GEN NMR

erre ene a

0 1
  C      -15.820    -767.750    1043.073
  O      -14.771    -768.513    1042.510
  H      -15.698    -767.730    1044.161
  H      -16.786    -768.211    1042.839
  H      -15.798    -766.723    1042.695
  P      -14.668    -768.530    1040.911
  C      -12.673    -766.828    1040.694
  O      -14.052    -767.114    1040.456
  C      -12.009    -766.362    1039.398
  O      -12.004    -767.403    1038.408
  C      -12.728    -765.214    1038.719
  O      -12.589    -763.990    1039.411
  C      -12.048    -765.229    1037.358
  O      -10.762    -764.602    1037.407
  C      -11.899    -766.759    1037.115
  N      -12.882    -767.263    1036.165
  C      -12.734    -766.828    1034.844
  O      -11.814    -766.069    1034.537
  N      -13.651    -767.237    1033.910
  C      -14.614    -768.034    1034.257
  N      -15.498    -768.399    1033.287
  C      -14.791    -768.543    1035.637
  C      -13.892    -768.120    1036.528
  O      -16.198    -768.409    1040.460
  O      -13.946    -769.698    1040.331
  H      -10.321    -764.796    1036.569
  H      -16.660    -767.653    1040.856
  H      -15.597    -769.226    1035.869
  H      -13.955    -768.441    1037.559
  H      -10.903    -766.995    1036.726
  H      -12.629    -764.706    1036.594
  H      -13.791    -765.453    1038.575
  H      -10.961    -766.111    1039.638
  H      -15.363    -768.016    1032.365
  H      -12.159    -767.702    1041.109
  H      -16.303    -768.993    1033.446
  H      -12.629    -766.036    1041.453
  P      -13.642    -762.805    1039.179
  C      -15.704    -763.831    1040.317
  O      -15.089    -763.486    1039.077
  O      -13.310    -761.865    1038.068
  O      -13.705    -762.099    1040.615
  H      -13.997    -762.672    1041.349
  H      -16.659    -764.275    1040.130
  H      -15.831    -762.949    1040.910
  H      -15.083    -764.527    1040.841

 6  7  8  9  10  11  12  13  14  15  16  26  30  31  32  33  35 0
 6-311+G(2d,p)
 ****
 37  38 0
 6-311+G(2d,p)
 ****
 1  2  3  4  5  17  18  19  20  21  22  23  24  25 0
 3-21G
 ****
 27  28  29  34  36  39  40  41  42  43  44  45  46 0
 3-21G
 ****


