%nproc=1
%NoSave
%Mem=1900MB
#P OB98/GEN NMR

erre ene a

0 1
  C     -116.108    -274.111      34.439
  O     -115.187    -274.970      35.080
  H     -115.857    -273.079      34.695
  H     -117.124    -274.320      34.779
  H     -116.045    -274.228      33.352
  P     -115.371    -276.555      34.919
  C     -116.525    -278.444      36.247
  O     -116.210    -277.057      36.192
  C     -117.399    -278.740      37.473
  O     -116.673    -278.312      38.650
  C     -118.739    -277.987      37.434
  O     -119.865    -278.846      37.616
  C     -118.534    -276.856      38.438
  O     -119.722    -276.372      39.022
  C     -117.523    -277.447      39.425
  N     -116.733    -276.442      40.133
  C     -117.278    -275.900      41.297
  O     -118.363    -276.212      41.777
  N     -116.508    -274.953      41.926
  C     -115.292    -274.496      41.507
  O     -114.648    -273.649      42.115
  C     -114.783    -275.085      40.258
  C     -115.513    -276.012      39.637
  O     -114.120    -277.326      34.656
  O     -116.418    -276.706      33.716
  H     -120.129    -277.121      39.511
  H     -115.947    -276.996      32.910
  H     -116.882    -274.565      42.774
  H     -113.826    -274.736      39.892
  H     -115.170    -276.469      38.712
  H     -118.034    -278.053      40.176
  H     -118.065    -276.011      37.910
  H     -118.914    -277.556      36.441
  H     -117.546    -279.824      37.549
  H     -115.582    -279.000      36.310
  H     -117.054    -278.739      35.333
  P     -121.010    -279.100      36.533
  C     -123.298    -277.969      35.891
  O     -122.166    -278.016      36.752
  O     -121.443    -280.517      36.360
  O     -120.333    -278.626      35.146
  H     -120.721    -279.191      34.447
  H     -123.950    -277.180      36.202
  H     -123.820    -278.902      35.936
  H     -122.975    -277.789      34.887

 6  7  8  9  10  11  12  13  14  15  16  26  31  32  33  34  35 0
 6-311+G(2d,p)
 ****
 36  37 0
 6-311+G(2d,p)
 ****
 1  2  3  4  5  17  18  19  20  21  22  23  24  25 0
 3-21G
 ****
 27  28  29  30  38  39  40  41  42  43  44  45 0
 3-21G
 ****


