%nproc=1
%NoSave
%Mem=1900MB
#P OB98/GEN NMR

erre ene a

0 1
  C     -208.660    -446.699     348.026
  O     -207.480    -446.347     347.344
  P     -207.300    -446.650     345.781
  C     -206.036    -444.656     344.735
  O     -205.924    -445.950     345.328
  C     -204.646    -444.053     344.523
  O     -203.994    -443.897     345.819
  C     -203.733    -444.941     343.634
  O     -203.148    -444.258     342.525
  C     -202.752    -445.518     344.636
  O     -201.547    -445.985     344.058
  C     -202.641    -444.379     345.656
  N     -202.046    -444.815     346.925
  C     -201.047    -444.009     347.464
  O     -200.643    -442.966     346.962
  N     -200.460    -444.480     348.613
  C     -200.676    -445.697     349.175
  O     -200.044    -446.095     350.151
  C     -201.713    -446.518     348.543
  C     -202.364    -446.047     347.478
  O     -208.472    -446.299     344.927
  O     -206.911    -448.197     345.750
  H     -201.742    -446.821     343.603
  H     -206.102    -448.427     346.235
  H     -199.732    -443.903     349.009
  H     -201.904    -447.495     348.965
  H     -203.135    -446.629     346.979
  H     -202.041    -443.555     345.274
  H     -203.228    -446.387     345.113
  H     -204.304    -445.747     343.176
  H     -204.773    -443.060     344.076
  H     -206.603    -444.015     345.409
  H     -206.589    -444.731     343.790
  P     -203.627    -444.391     341.004
  C     -202.567    -442.155     340.183
  O     -202.610    -443.562     340.083
  O     -205.074    -444.092     340.770
  O     -203.299    -445.919     340.637
  H     -203.930    -446.229     339.956
  H     -202.258    -441.745     339.219
  H     -201.835    -441.872     340.947
  H     -203.542    -441.740     340.445
  H     -208.577    -446.412     349.053
  H     -208.807    -447.757     347.962
  H     -209.493    -446.196     347.581

 3  4  5  6  7  8  9  10  11  12  13  23  28  29  30  31  32 0
 6-311+G(2d,p)
 ****
 33  34 0
 6-311+G(2d,p)
 ****
 1  2  14  15  16  17  18  19  20  21  22  24  25  26  27 0
 3-21G
 ****
 35  36  37  38  39  40  41  42  43  44  45 0
 3-21G
 ****


