%nproc=1
%NoSave
%Mem=1900MB
#P OB98/GEN NMR

erre ene a

0 1
  C      122.065     182.111      45.312
  O      120.959     182.983      45.414
  H      122.287     181.709      46.304
  H      122.939     182.656      44.949
  H      121.835     181.282      44.638
  P      120.440     183.672      44.057
  C      118.518     182.147      43.184
  O      118.882     183.281      43.964
  C      117.153     181.612      43.626
  O      117.296     180.932      44.898
  C      116.098     182.707      43.797
  O      114.858     182.262      43.239
  C      115.981     182.880      45.301
  O      114.702     183.378      45.691
  C      116.322     181.474      45.810
  N      116.835     181.500      47.180
  C      115.896     181.373      48.208
  O      114.697     181.260      47.940
  N      116.325     181.433      49.507
  C      117.576     181.662      49.764
  N      117.933     181.731      51.075
  C      118.595     181.848      48.712
  C      118.162     181.752      47.457
  O      121.122     182.781      42.920
  O      120.722     185.132      43.937
  H      114.729     183.560      46.657
  H      121.063     183.216      42.035
  H      119.623     182.053      48.976
  H      118.839     181.877      46.618
  H      115.436     180.824      45.780
  H      116.739     183.595      45.643
  H      116.380     183.647      43.321
  H      116.827     180.855      42.902
  H      117.208     181.609      51.768
  H      119.276     181.371      43.313
  H      118.874     181.933      51.391
  H      118.475     182.436      42.129
  P      114.236     183.185      42.083
  C      114.630     182.489      39.615
  O      113.925     182.237      40.823
  O      115.479     184.071      41.600
  O      113.086     184.020      42.538
  H      115.447     184.954      42.010
  H      114.323     181.786      38.869
  H      115.681     182.389      39.788
  H      114.417     183.482      39.278

 6  7  8  9  10  11  12  13  14  15  16  26  30  31  32  33  35 0
 6-311+G(2d,p)
 ****
 37  38 0
 6-311+G(2d,p)
 ****
 1  2  3  4  5  17  18  19  20  21  22  23  24  25 0
 3-21G
 ****
 27  28  29  34  36  39  40  41  42  43  44  45  46 0
 3-21G
 ****


