%nproc=1
%NoSave
%Mem=1900MB
#P OB98/GEN NMR

erre ene a

0 1
  C     -356.530     -64.183     261.065
  O     -356.260     -63.231     262.080
  H     -356.851     -63.652     260.166
  H     -357.324     -64.869     261.373
  H     -355.622     -64.746     260.832
  P     -356.019     -63.770     263.574
  C     -356.568     -61.389     264.416
  O     -356.856     -62.781     264.527
  C     -357.744     -60.544     264.920
  O     -358.824     -60.578     263.971
  C     -358.345     -61.050     266.225
  O     -357.503     -60.887     267.349
  C     -359.727     -60.410     266.220
  O     -359.740     -59.089     266.753
  C     -360.047     -60.363     264.704
  N     -361.081     -61.323     264.334
  C     -362.239     -61.298     265.106
  O     -362.401     -60.537     266.061
  N     -363.201     -62.214     264.771
  C     -363.096     -63.162     263.791
  O     -363.980     -63.983     263.564
  C     -361.839     -63.157     263.026
  C     -360.900     -62.253     263.330
  O     -354.584     -63.934     263.982
  O     -356.860     -65.130     263.631
  H     -358.957     -58.626     266.388
  H     -356.585     -65.689     264.395
  H     -364.052     -62.199     265.310
  H     -361.718     -63.898     262.245
  H     -359.960     -62.231     262.780
  H     -360.406     -59.364     264.422
  H     -360.441     -60.998     266.796
  H     -358.507     -62.130     266.129
  H     -357.404     -59.504     265.020
  H     -356.398     -61.172     263.358
  H     -355.660     -61.155     264.979
  P     -357.526     -61.866     268.611
  C     -358.171     -59.852     270.124
  O     -358.444     -61.200     269.753
  O     -356.218     -62.476     269.012
  O     -358.469     -63.059     268.069
  H     -358.143     -63.895     268.460
  H     -358.855     -59.547     270.888
  H     -358.283     -59.217     269.270
  H     -357.169     -59.780     270.493

 6  7  8  9  10  11  12  13  14  15  16  26  31  32  33  34  35 0
 6-311+G(2d,p)
 ****
 36  37 0
 6-311+G(2d,p)
 ****
 1  2  3  4  5  17  18  19  20  21  22  23  24  25 0
 3-21G
 ****
 27  28  29  30  38  39  40  41  42  43  44  45 0
 3-21G
 ****


