%nproc=1
%NoSave
%Mem=1900MB
#P OB98/GEN NMR

erre ene a

0 1
  C      164.496      71.130      44.525
  O      165.861      71.151      44.893
  P      166.535      72.483      45.468
  C      166.446      73.697      47.724
  O      165.723      72.904      46.792
  C      165.580      74.829      48.280
  O      165.340      75.802      47.225
  C      164.211      74.386      48.815
  O      163.902      75.241      49.920
  C      163.280      74.697      47.651
  O      161.919      74.817      48.048
  C      163.909      75.988      47.139
  N      161.730      79.424      44.042
  C      161.903      79.404      45.380
  N      162.468      78.437      46.134
  C      162.885      77.418      45.366
  C      162.754      77.282      43.996
  C      162.156      78.360      43.314
  N      162.005      78.415      41.948
  N      163.253      76.061      43.577
  C      163.678      75.477      44.680
  N      163.537      76.283      45.775
  O      166.717      73.582      44.476
  O      167.941      71.990      46.047
  H      161.864      75.473      48.767
  H      168.664      72.276      45.452
  H      161.542      80.275      45.919
  H      164.092      74.480      44.740
  H      163.641      76.853      47.760
  H      163.347      73.897      46.903
  H      164.169      73.332      49.114
  H      166.150      75.340      49.065
  H      167.310      74.126      47.206
  H      161.687      79.286      41.555
  H      162.545      77.771      41.368
  H      166.814      73.066      48.541
  P      163.153      74.646      51.207
  C      163.786      72.874      52.943
  O      163.923      73.298      51.599
  O      161.668      74.524      51.088
  O      163.570      75.657      52.381
  H      162.955      75.550      53.135
  H      164.475      73.445      53.572
  H      164.036      71.812      53.009
  H      162.762      73.019      53.302
  H      164.238      70.155      44.167
  H      164.324      71.851      43.753
  H      163.893      71.368      45.377

 3  4  5  6  7  8  9  10  11  12  22  25  29  30  31  32 0
 6-311+G(2d,p)
 ****
 33  36  37 0
 6-311+G(2d,p)
 ****
 1  2  13  14  15  16  17  18  19  20  21  23  24  26 0
 3-21G
 ****
 27  28  34  35  38  39  40  41  42  43  44  45  46  47  48 0
 3-21G
 ****


