%nproc=1
%NoSave
%Mem=1900MB
#P OB98/GEN NMR

erre ene a

0 1
  C       60.322     -57.536     101.946
  O       61.743     -57.537     101.804
  P       62.597     -58.018     103.075
  C       62.143     -60.562     102.871
  O       63.105     -59.519     102.813
  C       62.691     -61.877     102.300
  O       62.814     -61.805     100.855
  C       64.068     -62.254     102.853
  O       64.123     -63.680     102.927
  C       65.014     -61.788     101.762
  O       66.271     -62.454     101.848
  C       64.181     -62.108     100.509
  N       64.618     -61.371      99.325
  C       65.444     -62.047      98.424
  O       65.833     -63.190      98.676
  N       65.845     -61.403      97.282
  C       65.496     -60.170      97.082
  N       65.930     -59.585      95.932
  C       64.674     -59.398      98.034
  C       64.272     -60.056      99.118
  O       61.492     -58.185     104.221
  O       63.662     -57.051     103.480
  H       66.119     -63.412     101.694
  H       61.779     -57.722     105.031
  H       64.426     -58.366      97.835
  H       63.665     -59.577      99.872
  H       64.235     -63.180     100.275
  H       65.186     -60.708     101.845
  H       64.279     -61.822     103.835
  H       61.972     -62.672     102.529
  H       66.484     -60.150      95.300
  H       61.252     -60.275     102.310
  H       65.720     -58.631      95.676
  H       61.820     -60.690     103.909
  P       63.823     -64.380     104.338
  C       61.505     -64.973     103.403
  O       62.679     -65.460     104.023
  O       62.980     -63.238     105.089
  O       64.975     -64.838     105.165
  H       62.792     -63.517     106.003
  H       60.870     -65.824     103.137
  H       61.754     -64.420     102.494
  H       60.954     -64.331     104.096
  H       59.873     -57.197     101.036
  H       60.044     -56.882     102.746
  H       59.985     -58.528     102.163

 3  4  5  6  7  8  9  10  11  12  13  21  23  27  28  29  30  32 0
 6-311+G(2d,p)
 ****
 34  35 0
 6-311+G(2d,p)
 ****
 1  2  14  15  16  17  18  19  20  22  24  25  26 0
 3-21G
 ****
 31  33  36  37  38  39  40  41  42  43  44  45  46 0
 3-21G
 ****


