%nproc=1
%NoSave
%Mem=1900MB
#P OB98/GEN NMR

erre ene a

0 1
  C     -899.201    -893.600      54.152
  O     -898.151    -892.740      54.626
  P     -897.511    -893.170      56.027
  C     -895.491    -894.500      55.096
  O     -896.691    -894.560      55.851
  C     -894.721    -895.840      55.154
  O     -894.531    -896.240      56.497
  C     -895.441    -896.970      54.390
  O     -894.441    -897.840      53.820
  C     -896.151    -897.750      55.521
  O     -896.481    -899.040      55.128
  C     -895.071    -897.600      56.633
  N     -895.631    -897.830      57.937
  C     -896.071    -899.130      58.276
  O     -896.051    -900.000      57.417
  N     -896.521    -899.390      59.536
  C     -896.621    -898.420      60.398
  N     -897.091    -898.760      61.639
  C     -896.241    -897.040      60.110
  C     -895.721    -896.810      58.868
  O     -898.741    -893.570      56.951
  O     -896.701    -892.030      56.639
  H     -896.751    -899.580      55.938
  H     -898.691    -893.130      57.781
  H     -896.331    -896.270      60.855
  H     -895.411    -895.840      58.548
  H     -894.251    -898.360      56.502
  H     -897.081    -897.200      55.824
  H     -896.131    -896.650      53.610
  H     -893.741    -895.710      54.713
  H     -897.341    -899.720      61.812
  H     -894.811    -893.710      55.489
  H     -897.211    -898.080      62.392
  H     -895.741    -894.250      54.049
  P     -894.261    -897.770      52.222
  C     -891.681    -897.760      51.978
  O     -892.851    -897.010      52.042
  O     -895.331    -896.710      51.816
  O     -894.391    -899.050      51.478
  H     -895.331    -896.630      50.846
  H     -890.841    -897.100      51.720
  H     -891.781    -898.520      51.221
  H     -891.441    -898.250      52.943
  H     -899.566    -893.235      53.214
  H     -900.000    -893.614      54.864
  H     -898.820    -894.592      54.025

 3  4  5  6  7  8  9  10  11  12  13  21  23  27  28  29  30  32 0
 6-311+G(2d,p)
 ****
 34  35 0
 6-311+G(2d,p)
 ****
 1  2  14  15  16  17  18  19  20  22  24  25  26 0
 3-21G
 ****
 31  33  36  37  38  39  40  41  42  43  44  45  46 0
 3-21G
 ****


