%nproc=1
%NoSave
%Mem=1900MB
#P OB98/GEN NMR

erre ene a

0 1
  C     -201.589    -220.984     591.753
  O     -201.094    -219.739     591.253
  P     -200.915    -219.593     589.664
  C     -198.334    -219.907     589.612
  O     -199.437    -219.043     589.357
  C     -197.027    -219.117     589.768
  O     -196.747    -218.342     588.571
  C     -197.046    -218.121     590.938
  O     -195.707    -217.988     591.441
  C     -197.444    -216.823     590.267
  O     -197.115    -215.691     591.065
  C     -196.678    -216.951     588.949
  N     -196.470    -212.368     586.854
  C     -195.791    -212.877     587.940
  N     -194.895    -212.062     588.536
  N     -195.967    -214.092     588.403
  C     -196.866    -214.811     587.682
  C     -197.608    -214.413     586.593
  C     -197.418    -213.060     586.108
  O     -198.004    -212.546     585.157
  N     -198.435    -215.413     586.156
  C     -198.195    -216.416     586.984
  N     -197.228    -216.109     587.904
  O     -201.858    -218.341     589.309
  O     -201.322    -220.811     588.895
  H     -196.162    -215.763     591.296
  H     -202.647    -218.652     588.839
  H     -196.297    -211.422     586.544
  H     -198.694    -217.377     586.963
  H     -195.615    -216.675     589.059
  H     -198.529    -216.815     590.090
  H     -194.669    -211.137     588.195
  H     -197.710    -218.396     591.765
  H     -194.353    -212.427     589.307
  H     -196.204    -219.827     589.905
  H     -198.226    -220.633     588.804
  H     -198.551    -220.494     590.513
  P     -195.331    -218.835     592.751
  C     -194.934    -216.732     594.226
  O     -194.383    -217.892     593.631
  O     -194.338    -219.961     592.199
  O     -196.503    -219.421     593.467
  H     -194.352    -220.741     592.784
  H     -195.085    -216.922     595.289
  H     -195.887    -216.450     593.766
  H     -194.224    -215.907     594.109
  H     -201.657    -220.938     592.820
  H     -200.922    -221.772     591.471
  H     -202.559    -221.173     591.342

 3  4  5  6  7  8  9  10  11  12  23  26  30  31 0
 6-311+G(2d,p)
 ****
 33  35  36  37  38 0
 6-311+G(2d,p)
 ****
 1  2  13  14  15  16  17  18  19  20  21  22  24  25 0
 3-21G
 ****
 27  28  29  32  34  39  40  41  42  43  44  45  46  47  48  49 0
 3-21G
 ****


