%nproc=1
%NoSave
%Mem=1900MB
#P OB98/GEN NMR

erre ene a

0 1
  C      -42.541     -65.575     -76.479
  O      -42.567     -65.510     -75.063
  P      -41.185     -65.213     -74.300
  C      -41.461     -62.623     -74.334
  O      -40.712     -63.749     -74.757
  C      -40.705     -61.852     -73.249
  O      -39.370     -61.557     -73.738
  C      -41.344     -60.519     -72.843
  O      -41.049     -60.320     -71.455
  C      -40.580     -59.506     -73.676
  O      -40.649     -58.189     -73.139
  C      -39.187     -60.126     -73.669
  N      -35.903     -56.634     -75.281
  C      -36.594     -56.714     -74.085
  N      -36.322     -55.759     -73.171
  N      -37.469     -57.647     -73.811
  C      -37.622     -58.542     -74.816
  C      -37.028     -58.547     -76.055
  C      -36.036     -57.533     -76.331
  O      -35.339     -57.474     -77.340
  N      -37.504     -59.565     -76.837
  C      -38.325     -60.223     -76.042
  N      -38.394     -59.668     -74.792
  O      -40.156     -66.191     -75.033
  O      -41.209     -65.410     -72.817
  H      -41.591     -57.927     -73.109
  H      -40.071     -67.037     -74.553
  H      -35.228     -55.902     -75.427
  H      -38.887     -61.103     -76.311
  H      -38.629     -59.896     -72.753
  H      -40.994     -59.477     -74.692
  H      -35.639     -55.029     -73.303
  H      -42.422     -60.481     -73.013
  H      -36.790     -55.812     -72.274
  H      -40.595     -62.505     -72.375
  H      -42.413     -62.967     -73.917
  H      -41.673     -61.977     -75.193
  P      -42.165     -59.618     -70.545
  C      -43.186     -61.859     -69.741
  O      -43.393     -60.635     -70.417
  O      -42.737     -58.470     -71.506
  O      -41.657     -59.036     -69.267
  H      -43.015     -57.703     -70.971
  H      -44.150     -62.236     -69.392
  H      -42.523     -61.737     -68.881
  H      -42.752     -62.585     -70.433
  H      -43.526     -65.778     -76.845
  H      -41.878     -66.356     -76.788
  H      -42.200     -64.640     -76.873

 3  4  5  6  7  8  9  10  11  12  23  26  30  31 0
 6-311+G(2d,p)
 ****
 33  35  36  37  38 0
 6-311+G(2d,p)
 ****
 1  2  13  14  15  16  17  18  19  20  21  22  24  25 0
 3-21G
 ****
 27  28  29  32  34  39  40  41  42  43  44  45  46  47  48  49 0
 3-21G
 ****


