%nproc=1
%NoSave
%Mem=1900MB
#P OB98/GEN NMR

erre ene a

0 1
  C     -331.084      -6.202    -428.344
  O     -331.232      -7.377    -427.575
  H     -330.839      -5.373    -427.676
  H     -332.017      -5.968    -428.861
  H     -330.274      -6.311    -429.072
  P     -331.392      -8.780    -428.332
  C     -333.935      -8.666    -427.919
  O     -332.898      -8.844    -428.877
  C     -335.141      -9.521    -428.293
  O     -336.211      -9.316    -427.344
  C     -335.733      -9.198    -429.659
  O     -334.932      -9.728    -430.697
  C     -337.112      -9.828    -429.528
  O     -337.049     -11.245    -429.746
  C     -337.455      -9.506    -428.055
  N     -338.328      -8.342    -427.904
  C     -339.677      -8.604    -427.687
  O     -340.144      -9.739    -427.655
  N     -340.477      -7.505    -427.522
  C     -340.083      -6.202    -427.637
  O     -340.855      -5.253    -427.535
  C     -338.655      -5.988    -427.904
  C     -337.855      -7.049    -428.023
  O     -330.950      -9.985    -427.570
  O     -330.536      -8.585    -429.671
  H     -336.480     -11.382    -430.528
  H     -329.665      -9.012    -429.571
  H     -341.459      -7.672    -427.376
  H     -338.306      -4.969    -428.009
  H     -336.799      -6.911    -428.223
  H     -337.954     -10.367    -427.587
  H     -337.827      -9.431    -430.249
  H     -335.854      -8.113    -429.776
  H     -334.840     -10.576    -428.240
  H     -334.226      -7.608    -427.908
  H     -333.557      -8.940    -426.930
  P     -334.437      -8.804    -431.905
  C     -336.720      -9.109    -433.023
  O     -335.741      -8.172    -432.599
  O     -333.480      -9.449    -432.854
  O     -333.765      -7.544    -431.180
  H     -332.794      -7.598    -431.254
  H     -337.542      -8.589    -433.469
  H     -337.067      -9.668    -432.180
  H     -336.289      -9.776    -433.740

 6  7  8  9  10  11  12  13  14  15  16  26  31  32  33  34  35 0
 6-311+G(2d,p)
 ****
 36  37 0
 6-311+G(2d,p)
 ****
 1  2  3  4  5  17  18  19  20  21  22  23  24  25 0
 3-21G
 ****
 27  28  29  30  38  39  40  41  42  43  44  45 0
 3-21G
 ****


