%nproc=1
%NoSave
%Mem=1900MB
#P OB98/GEN NMR

erre ene a

0 1
  C      225.057    -137.625    -152.679
  O      225.299    -137.825    -151.299
  H      224.539    -138.502    -153.074
  H      226.003    -137.502    -153.211
  H      224.425    -136.745    -152.829
  P      226.042    -136.633    -150.525
  C      226.886    -138.509    -148.921
  O      226.368    -137.193    -149.057
  C      226.068    -139.301    -147.892
  O      224.692    -139.397    -148.363
  C      226.568    -140.739    -147.675
  O      226.236    -141.122    -146.327
  C      225.702    -141.517    -148.652
  O      225.759    -142.900    -148.392
  C      224.370    -140.805    -148.429
  N      222.286    -144.321    -151.508
  C      223.198    -144.421    -150.513
  N      223.693    -143.442    -149.730
  C      223.140    -142.257    -150.040
  C      222.194    -142.001    -151.017
  C      221.763    -143.101    -151.781
  N      220.842    -143.001    -152.799
  N      221.867    -140.656    -151.040
  C      222.603    -140.113    -150.090
  N      223.391    -141.041    -149.466
  O      224.872    -135.570    -150.277
  O      227.205    -136.032    -151.241
  H      226.679    -143.231    -148.478
  H      224.881    -134.897    -150.985
  H      223.580    -145.421    -150.326
  H      222.611    -139.063    -149.824
  H      223.913    -141.088    -147.472
  H      226.053    -141.375    -149.680
  H      227.643    -140.855    -147.833
  H      226.041    -138.741    -146.949
  H      227.928    -138.439    -148.593
  H      226.845    -139.018    -149.887
  H      220.596    -143.837    -153.305
  H      220.456    -142.096    -153.023
  P      227.421    -141.500    -145.308
  C      226.176    -143.632    -144.434
  O      226.815    -142.400    -144.126
  O      227.679    -140.102    -144.562
  O      228.681    -142.002    -145.935
  H      228.606    -140.056    -144.261
  H      225.836    -144.093    -143.530
  H      226.870    -144.281    -144.926
  H      225.341    -143.450    -145.077

 6  7  8  9  10  11  12  13  14  15  25  28  32  33  34  35 0
 6-311+G(2d,p)
 ****
 36  37  40 0
 6-311+G(2d,p)
 ****
 1  2  3  4  5  16  17  18  19  20  21  22  23  24 0
 3-21G
 ****
 26  27  29  30  31  38  39 41  42  43  44  45  46  47  48 0
 3-21G
 ****


