%nproc=1
%NoSave
%Mem=1900MB
#P OB98/GEN NMR

erre ene a

0 1
  C      167.793      52.594    -185.731
  O      167.161      52.474    -184.467
  P      166.707      51.009    -183.994
  C      165.022      49.310    -185.089
  O      165.402      50.657    -184.857
  C      163.576      49.249    -185.591
  O      162.701      49.907    -184.647
  C      163.336      49.948    -186.923
  O      163.793      49.170    -188.017
  C      161.826      50.157    -186.879
  O      161.144      48.946    -187.248
  C      161.592      50.466    -185.385
  N      161.439      51.894    -185.108
  C      160.132      52.367    -185.026
  O      159.145      51.647    -185.172
  N      159.997      53.710    -184.787
  C      161.015      54.615    -184.689
  O      160.837      55.815    -184.518
  C      162.373      54.061    -184.816
  C      162.520      52.749    -185.017
  O      166.152      51.333    -182.528
  O      167.811      50.007    -184.047
  H      165.829      52.250    -182.458
  H      161.558      48.638    -188.077
  H      159.059      54.074    -184.699
  H      163.205      54.750    -184.755
  H      163.511      52.325    -185.123
  H      160.694      49.946    -185.027
  H      161.489      50.946    -187.562
  H      163.840      50.922    -186.929
  H      163.279      48.194    -185.651
  H      165.112      48.747    -184.156
  H      165.703      48.871    -185.827
  P      164.384      49.982    -189.280
  C      163.386      51.927    -190.711
  O      163.154      50.794    -189.903
  O      164.644      48.790    -190.319
  O      165.595      50.795    -188.954
  H      163.923      48.138    -190.335
  H      162.493      52.115    -191.313
  H      164.238      51.772    -191.381
  H      163.575      52.796    -190.075
  H      168.038      53.620    -185.911
  H      167.130      52.246    -186.496
  H      168.688      52.007    -185.740

 3  4  5  6  7  8  9  10  11  12  13  24  28  29  30  31  32 0
 6-311+G(2d,p)
 ****
 33  34 0
 6-311+G(2d,p)
 ****
 1  2  14  15  16  17  18  19  20  21  22  23  25  26  27 0
 3-21G
 ****
 35  36  37  38  39  40  41  42  43  44  45 0
 3-21G
 ****


