%nproc=1
%NoSave
%Mem=1900MB
#P OB98/GEN NMR

erre ene a

0 1
  C     -318.422       6.179       5.992
  O     -319.107       7.311       6.478
  P     -320.528       7.751       5.878
  C     -321.188       9.596       4.199
  O     -320.222       8.608       4.551
  C     -321.013      10.021       2.738
  O     -321.479       8.933       1.876
  C     -321.820      11.287       2.379
  O     -321.047      12.326       1.762
  C     -322.961      10.734       1.537
  O     -323.576      11.692       0.702
  C     -322.286       9.539       0.846
  N     -323.253       8.608       0.269
  C     -323.879       8.992      -0.912
  O     -323.666      10.052      -1.499
  N     -324.835       8.139      -1.392
  C     -325.298       7.021      -0.762
  O     -326.228       6.357      -1.201
  C     -324.625       6.684       0.505
  C     -323.634       7.465       0.946
  O     -321.450       8.417       6.840
  O     -321.098       6.383       5.267
  H     -324.470      11.366       0.475
  H     -320.542       5.980       4.574
  H     -325.300       8.405      -2.248
  H     -324.980       5.809       1.030
  H     -323.123       7.243       1.875
  H     -321.607       9.871       0.056
  H     -323.734      10.366       2.225
  H     -322.228      11.762       3.280
  H     -319.942      10.169       2.563
  H     -321.052      10.469       4.844
  H     -322.198       9.208       4.384
  P     -321.271      13.895       1.985
  C     -323.025      15.666       1.238
  O     -322.669      14.301       1.318
  O     -320.116      14.762       1.614
  O     -321.577      14.008       3.559
  H     -321.283      14.877       3.884
  H     -324.118      15.747       1.249
  H     -322.658      16.081       0.292
  H     -322.616      16.241       2.072
  H     -317.501       6.064       6.524
  H     -318.218       6.306       4.949
  H     -319.027       5.308       6.134

 3  4  5  6  7  8  9  10  11  12  13  23  28  29  30  31  32 0
 6-311+G(2d,p)
 ****
 33  34 0
 6-311+G(2d,p)
 ****
 1  2  14  15  16  17  18  19  20  21  22  24  25  26  27 0
 3-21G
 ****
 35  36  37  38  39  40  41  42  43  44  45 0
 3-21G
 ****


