%nproc=1
%NoSave
%Mem=1900MB
#P OB98/GEN NMR

erre ene a

0 1
  C      200.364     779.835     393.930
  O      199.803     778.649     394.527
  P      200.150     778.311     396.050
  C      202.741     778.065     395.897
  O      201.635     778.796     396.417
  C      204.065     778.817     396.135
  O      204.220     779.124     397.556
  C      205.319     778.038     395.710
  O      206.292     779.000     395.268
  C      205.782     777.409     397.021
  O      207.140     777.019     397.009
  C      205.473     778.556     397.998
  N      205.406     778.148     399.405
  C      206.571     778.206     400.147
  O      207.674     778.507     399.704
  N      206.441     777.855     401.476
  C      205.301     777.430     402.094
  O      205.258     777.099     403.270
  C      204.104     777.361     401.243
  C      204.217     777.719     399.957
  O      200.307     776.713     396.011
  O      199.102     778.696     397.052
  H      207.676     777.827     396.857
  H      199.836     776.312     396.757
  H      207.270     777.909     402.037
  H      203.173     777.036     401.694
  H      203.335     777.699     399.314
  H      206.222     779.346     397.890
  H      205.171     776.530     397.229
  H      205.125     777.294     394.922
  H      204.004     779.779     395.614
  H      202.604     777.920     394.823
  H      202.779     777.082     396.369
  P      206.147     779.601     393.783
  C      208.281     778.727     392.530
  O      206.897     778.581     392.792
  O      207.162     780.838     393.868
  O      204.755     780.002     393.398
  H      208.008     780.605     394.297
  H      208.826     778.985     393.431
  H      208.415     779.508     391.775
  H      208.660     777.783     392.130
  H      200.035     779.913     392.915
  H      201.432     779.776     393.955
  H      200.041     780.696     394.477

 3  4  5  6  7  8  9  10  11  12  13  23  28  29  30  31  32 0
 6-311+G(2d,p)
 ****
 33  34 0
 6-311+G(2d,p)
 ****
 1  2  14  15  16  17  18  19  20  21  22  24  25  26 0
 3-21G
 ****
 27  35  36  37  38  39  40  41  42  43  44  45 0
 3-21G
 ****


