%nproc=1
%NoSave
%Mem=1900MB
#P OB98/GEN NMR

erre ene a

0 1
  C      560.142     188.623     802.623
  O      559.113     189.148     801.802
  H      559.722     187.832     803.246
  H      560.551     189.406     803.264
  H      560.937     188.203     801.997
  P      559.502     190.403     800.881
  C      558.428     192.106     802.540
  O      559.614     191.621     801.928
  C      558.535     193.616     802.766
  O      559.692     193.928     803.572
  C      558.712     194.428     801.482
  O      557.510     194.596     800.758
  C      559.207     195.731     802.069
  O      558.110     196.440     802.684
  C      560.201     195.215     803.138
  N      561.564     195.085     802.618
  C      562.387     196.207     802.737
  O      561.971     197.256     803.235
  N      563.674     196.148     802.241
  C      564.108     195.044     801.703
  N      565.378     195.034     801.230
  C      563.277     193.833     801.581
  C      562.036     193.921     802.050
  O      558.137     190.736     800.111
  O      560.685     190.227     799.995
  H      557.590     196.838     801.955
  H      558.222     191.589     799.622
  H      563.680     192.939     801.112
  H      561.369     193.067     801.998
  H      560.217     195.880     804.011
  H      559.641     196.409     801.330
  H      559.496     194.010     800.839
  H      557.647     193.933     803.322
  H      565.907     195.910     801.278
  H      558.305     191.593     803.507
  H      565.752     194.290     800.664
  H      557.557     191.891     801.910
  P      557.607     194.625     799.152
  C      558.443     197.098     799.195
  O      558.679     195.749     798.773
  O      556.216     195.277     798.707
  O      557.830     193.291     798.522
  H      555.910     194.895     797.862
  H      559.247     197.721     798.864
  H      558.382     197.132     800.263
  H      557.524     197.448     798.773

 6  7  8  9  10  11  12  13  14  15  16  26  30  31  32  33  35 0
 6-311+G(2d,p)
 ****
 37  38 0
 6-311+G(2d,p)
 ****
 1  2  3  4  5  17  18  19  20  21  22  23  24  25 0
 3-21G
 ****
 27  28  29  34  36  39  40  41  42  43  44  45  46 0
 3-21G
 ****


