%nproc=1
%NoSave
%Mem=1900MB
#P OB98/GEN NMR

erre ene a

0 1
  C      -41.637     273.881    -350.520
  O      -41.440     275.000    -351.366
  H      -40.729     273.270    -350.527
  H      -42.474     273.281    -350.882
  H      -41.832     274.213    -349.491
  P      -42.652     276.049    -351.456
  C      -41.706     278.330    -350.606
  O      -41.975     277.485    -351.718
  C      -40.963     279.588    -351.067
  O      -39.799     279.181    -351.851
  C      -41.807     280.505    -351.973
  O      -41.368     281.867    -351.772
  C      -41.392     280.046    -353.360
  O      -41.760     280.998    -354.329
  C      -39.894     279.839    -353.128
  N      -37.248     280.059    -357.487
  C      -37.664     281.025    -356.633
  N      -38.359     280.882    -355.488
  C      -38.596     279.581    -355.234
  C      -38.239     278.488    -356.010
  C      -37.533     278.766    -357.194
  N      -37.128     277.790    -358.078
  N      -38.689     277.312    -355.430
  C      -39.303     277.688    -354.325
  N      -39.272     279.050    -354.162
  O      -43.168     276.143    -349.942
  O      -43.747     275.690    -352.406
  H      -41.364     281.874    -354.134
  H      -43.894     275.499    -349.801
  H      -37.408     282.046    -356.909
  H      -39.790     277.034    -353.611
  H      -39.353     280.793    -353.064
  H      -41.887     279.099    -353.622
  H      -42.883     280.440    -351.777
  H      -40.579     280.132    -350.191
  H      -41.093     277.777    -349.885
  H      -42.650     278.621    -350.133
  H      -36.656     278.078    -358.919
  H      -37.364     276.829    -357.890
  P      -42.370     282.924    -351.089
  C      -42.334     282.472    -348.515
  O      -41.881     283.275    -349.599
  O      -43.669     282.016    -350.816
  O      -42.737     284.106    -351.932
  H      -44.471     282.501    -351.098
  H      -41.918     282.840    -347.600
  H      -42.023     281.459    -348.667
  H      -43.402     282.513    -348.463

 6  7  8  9  10  11  12  13  14  15  25  28  32  33  34  35 0
 6-311+G(2d,p)
 ****
 36  37  40 0
 6-311+G(2d,p)
 ****
 1  2  3  4  5  16  17  18  19  20  21  22  23  24 0
 3-21G
 ****
 26  27  29  30  31  38  39 41  42  43  44  45  46  47  48 0
 3-21G
 ****


