%nproc=1
%NoSave
%Mem=1900MB
#P OB98/GEN NMR

erre ene a

0 1
  C     -150.932     179.645      50.571
  O     -150.309     179.780      51.833
  H     -151.992     179.427      50.731
  H     -150.484     178.816      50.018
  H     -150.849     180.571      49.994
  P     -148.778     180.244      51.895
  C     -146.531     179.138      51.257
  O     -147.871     178.931      51.687
  C     -145.746     177.822      51.285
  O     -145.764     177.300      52.644
  C     -146.321     176.743      50.367
  O     -145.243     175.997      49.788
  C     -147.108     175.855      51.309
  O     -147.236     174.519      50.821
  C     -146.298     175.963      52.600
  N     -147.148     172.696      56.361
  C     -146.172     172.697      55.386
  N     -145.302     171.666      55.401
  N     -146.062     173.625      54.473
  C     -146.988     174.611      54.589
  C     -148.002     174.722      55.512
  C     -148.130     173.675      56.502
  O     -148.988     173.613      57.382
  N     -148.749     175.856      55.288
  C     -148.183     176.425      54.242
  N     -147.119     175.702      53.771
  O     -148.415     181.069      53.091
  O     -148.552     181.058      50.537
  H     -146.325     174.166      50.717
  H     -148.520     182.013      50.703
  H     -147.198     171.952      57.029
  H     -148.508     177.350      53.783
  H     -145.465     175.252      52.628
  H     -148.120     176.267      51.439
  H     -145.314     170.927      56.090
  H     -146.940     177.162      49.570
  H     -144.554     171.654      54.715
  H     -144.701     178.038      51.040
  H     -146.061     179.862      51.929
  H     -146.540     179.548      50.242
  P     -145.266     175.671      48.219
  C     -145.969     173.733      46.682
  O     -145.673     174.132      48.014
  O     -144.066     176.117      47.452
  O     -146.583     176.451      47.720
  H     -146.426     176.788      46.818
  H     -146.225     172.694      46.669
  H     -145.113     173.897      46.062
  H     -146.792     174.308      46.312

 6  7  8  9  10  11  12  13  14  15  26  29  33  34 0
 6-311+G(2d,p)
 ****
 36  38  39  40  41 0
 6-311+G(2d,p)
 ****
 1  2  3  4  5  16  17  18  19  20  21  22  23  24  25 0
 3-21G
 ****
 27  28  30  31  32  35  37  42  43  44  45  46  47 0
 3-21G
 ****
 48  49 0
 3-21G
 ****


