%nproc=1
%NoSave
%Mem=1900MB
#P OB98/GEN NMR

erre ene a

0 1
  C      505.960    -283.225       0.320
  O      505.673    -283.643      -0.999
  P      505.445    -282.628      -2.211
  C      504.190    -280.377      -2.539
  O      504.313    -281.569      -1.778
  C      503.367    -279.288      -1.831
  O      503.923    -279.049      -0.521
  C      503.472    -277.962      -2.594
  O      502.630    -277.712      -3.703
  C      503.453    -276.884      -1.521
  O      502.158    -276.306      -1.343
  C      503.877    -277.640      -0.252
  N      506.325    -274.393       2.780
  C      504.975    -274.685       2.725
  N      504.166    -273.873       3.444
  N      504.474    -275.667       2.022
  C      505.397    -276.330       1.284
  C      506.760    -276.140       1.264
  C      507.307    -275.075       2.079
  O      508.486    -274.730       2.084
  N      507.374    -276.947       0.340
  C      506.383    -277.600      -0.227
  N      505.157    -277.227       0.286
  O      505.385    -283.221      -3.582
  O      506.791    -281.736      -2.133
  H      502.069    -275.571      -1.981
  H      507.033    -281.488      -3.046
  H      506.648    -273.570       3.279
  H      506.487    -278.322      -1.033
  H      503.134    -277.497       0.545
  H      504.128    -276.062      -1.783
  H      504.500    -273.026       3.875
  H      504.486    -277.921      -3.017
  H      503.168    -273.954       3.294
  H      502.339    -279.619      -1.662
  H      503.727    -280.645      -3.497
  H      505.186    -279.980      -2.770
  P      503.018    -276.895      -5.023
  C      503.700    -274.469      -5.446
  O      502.850    -275.332      -4.717
  O      501.815    -277.191      -6.038
  O      504.327    -277.281      -5.640
  H      502.112    -277.038      -6.959
  H      503.719    -273.490      -4.958
  H      503.317    -274.345      -6.464
  H      504.722    -274.864      -5.487
  H      506.070    -284.083       0.950
  H      505.159    -282.616       0.683
  H      506.868    -282.660       0.325

 3  4  5  6  7  8  9  10  11  12  23  26  30  31 0
 6-311+G(2d,p)
 ****
 33  35  36  37  38 0
 6-311+G(2d,p)
 ****
 1  2  13  14  15  16  17  18  19  20  21  22  24  25 0
 3-21G
 ****
 27  28  29  32  34  39  40  41  42  43  44  45  46  47  48  49 0
 3-21G
 ****


