%nproc=1
%NoSave
%Mem=1900MB
#P OB98/GEN NMR

erre ene a

0 1
  C      -50.897     412.125     -40.988
  O      -49.903     413.030     -40.544
  H      -50.701     411.146     -40.546
  H      -50.863     412.035     -42.078
  H      -51.884     412.466     -40.670
  P      -50.028     414.541     -41.067
  C      -51.576     415.369     -39.163
  O      -51.463     415.025     -40.538
  C      -52.730     416.345     -38.951
  O      -52.613     417.471     -39.839
  C      -54.109     415.751     -39.218
  O      -54.560     414.998     -38.104
  C      -54.930     417.016     -39.412
  O      -55.260     417.585     -38.129
  C      -53.951     417.942     -40.159
  N      -56.847     419.559     -44.075
  C      -57.063     419.558     -42.743
  N      -56.266     419.071     -41.764
  C      -55.141     418.546     -42.278
  C      -54.788     418.476     -43.618
  C      -55.693     419.025     -44.542
  N      -55.468     419.033     -45.901
  N      -53.561     417.865     -43.767
  C      -53.158     417.617     -42.535
  N      -54.097     417.978     -41.602
  O      -49.750     414.750     -42.514
  O      -49.026     415.294     -40.066
  H      -55.774     416.919     -37.636
  H      -49.097     414.922     -39.168
  H      -57.995     420.005     -42.414
  H      -52.197     417.195     -42.270
  H      -54.027     418.976     -39.812
  H      -55.874     416.823     -39.926
  H      -54.122     415.169     -40.142
  H      -52.661     416.730     -37.925
  H      -50.642     415.817     -38.804
  H      -56.238     419.288     -46.499
  H      -54.668     418.526     -46.251
  H      -51.752     414.448     -38.604
  P      -55.759     413.946     -38.258
  C      -54.644     411.633     -38.379
  O      -55.182     412.721     -39.121
  O      -57.036     414.515     -38.772
  O      -55.930     413.313     -36.801
  H      -56.876     413.165     -36.607
  H      -54.292     410.881     -39.054
  H      -55.404     411.220     -37.749
  H      -53.831     411.980     -37.776

 6  7  8  9  10  11  12  13  14  15  25  28  32  33  34  35 0
 6-311+G(2d,p)
 ****
 36  39  40 0
 6-311+G(2d,p)
 ****
 1  2  3  4  5  16  17  18  19  20  21  22  23  24 0
 3-21G
 ****
 26  27  29  30  31  37  38  41  42  43  44  45  46  47 0
 3-21G
 ****
 48 0
 3-21G
 ****


