%nproc=1
%NoSave
%Mem=1900MB
#P OB98/GEN NMR

erre ene a

0 1
  C      -17.179      23.443       9.644
  O      -17.939      22.774       8.652
  P      -18.508      23.644       7.427
  C      -17.379      25.243       5.707
  O      -17.336      24.651       6.995
  C      -17.039      26.732       5.789
  O      -18.136      27.421       6.444
  C      -15.765      27.058       6.576
  O      -15.188      28.223       5.973
  C      -16.294      27.408       7.954
  O      -15.379      28.194       8.711
  C      -17.593      28.117       7.587
  N      -19.806      30.858      11.214
  C      -18.787      31.200      10.343
  N      -18.340      32.472      10.415
  N      -18.258      30.372       9.481
  C      -18.819      29.141       9.515
  C      -19.802      28.671      10.354
  C      -20.404      29.606      11.276
  O      -21.365      29.371      12.003
  N      -20.045      27.339      10.148
  C      -19.269      27.026       9.131
  N      -18.541      28.095       8.683
  O      -19.582      24.593       8.134
  O      -19.090      22.862       6.292
  H      -14.530      27.710       8.750
  H      -20.478      24.207       8.087
  H      -20.186      31.545      11.843
  H      -19.195      26.051       8.677
  H      -17.434      29.166       7.305
  H      -16.493      26.489       8.517
  H      -18.723      33.171      11.033
  H      -15.041      26.240       6.595
  H      -17.617      32.758       9.766
  H      -16.970      27.126       4.768
  H      -18.392      25.138       5.304
  H      -16.686      24.721       5.040
  P      -13.613      28.458       6.153
  C      -11.484      27.178       5.423
  O      -12.868      27.116       5.702
  O      -13.434      28.458       7.747
  O      -13.096      29.729       5.562
  H      -12.704      29.056       7.994
  H      -11.060      26.176       5.527
  H      -10.964      27.853       6.109
  H      -11.335      27.520       4.396
  H      -16.870      22.741      10.390
  H      -17.777      24.206      10.098
  H      -16.316      23.887       9.193

 3  4  5  6  7  8  9  10  11  12  23  26  30  31 0
 6-311+G(2d,p)
 ****
 33  35  36  37  38 0
 6-311+G(2d,p)
 ****
 1  2  13  14  15  16  17  18  19  20  21  22  24  25 0
 3-21G
 ****
 27  28  29  32  34  39  40  41  42  43  44  45  46  47  48  49 0
 3-21G
 ****


