%nproc=1
%NoSave
%Mem=1900MB
#P OB98/GEN NMR

erre ene a

0 1
  C       54.354     -88.371     -99.732
  O       55.018     -87.130     -99.992
  P       54.740     -86.425    -101.405
  C       55.799     -84.296    -102.466
  O       56.011     -85.528    -101.785
  C       57.031     -83.400    -102.327
  O       57.239     -83.007    -100.957
  C       58.320     -84.084    -102.746
  O       58.433     -84.117    -104.156
  C       59.375     -83.222    -102.064
  O       59.803     -82.140    -102.907
  C       58.635     -82.687    -100.816
  N       59.175     -83.212     -99.574
  C       60.361     -82.622     -99.125
  O       60.897     -81.729     -99.784
  N       60.919     -83.076     -97.958
  C       60.357     -84.051     -97.312
  N       60.960     -84.463     -96.165
  C       59.121     -84.719     -97.767
  C       58.590     -84.255     -98.895
  O       53.614     -85.341    -101.058
  O       54.286     -87.366    -102.472
  H       60.629     -81.802    -102.503
  H       53.016     -85.220    -101.816
  H       58.695     -85.532     -97.199
  H       57.682     -84.686     -99.305
  H       58.701     -81.593    -100.776
  H       60.269     -83.804    -101.819
  H       58.353     -85.103    -102.337
  H       56.873     -82.496    -102.933
  H       61.807     -83.983     -95.884
  H       54.921     -83.788    -102.061
  H       60.613     -85.215     -95.588
  H       55.583     -84.508    -103.518
  P       58.458     -85.550    -104.869
  C       57.355     -86.484    -106.992
  O       57.748     -85.320    -106.290
  O       57.325     -86.347    -104.060
  O       59.754     -86.286    -104.885
  H       57.307     -87.279    -104.342
  H       56.709     -86.190    -107.823
  H       56.800     -87.160    -106.337
  H       58.238     -86.990    -107.393
  H       54.629     -88.726     -98.761
  H       54.642     -89.091    -100.469
  H       53.295     -88.224     -99.772

 3  4  5  6  7  8  9  10  11  12  13  21  23  27  28  29  30  32 0
 6-311+G(2d,p)
 ****
 34  35 0
 6-311+G(2d,p)
 ****
 1  2  14  15  16  17  18  19  20  22  24  25  26 0
 3-21G
 ****
 31  33  36  37  38  39  40  41  42  43  44  45  46 0
 3-21G
 ****


