%nproc=1
%NoSave
%Mem=1900MB
#P OB98/GEN NMR

erre ene a

0 1
  C      113.422    -392.803       6.708
  O      113.327    -393.978       7.489
  H      114.444    -392.713       6.331
  H      113.195    -391.928       7.326
  H      112.733    -392.851       5.860
  P      111.859    -394.395       7.993
  C      112.191    -396.963       7.552
  O      111.986    -395.915       8.484
  C      112.401    -398.295       8.275
  O      113.739    -398.315       8.829
  C      111.416    -398.534       9.422
  O      111.115    -399.930       9.473
  C      112.215    -398.148      10.656
  O      111.712    -398.765      11.837
  C      113.631    -398.583      10.243
  N      114.670    -397.891      11.006
  C      115.145    -398.538      12.148
  O      114.680    -399.631      12.483
  N      116.099    -397.920      12.914
  C      116.503    -396.728      12.602
  N      117.432    -396.158      13.415
  C      115.996    -395.988      11.428
  C      115.100    -396.627      10.676
  O      111.058    -394.507       6.612
  O      111.256    -393.453       8.980
  H      112.379    -398.661      12.552
  H      111.550    -394.977       5.917
  H      116.354    -394.992      11.216
  H      114.682    -396.162       9.794
  H      113.759    -399.664      10.388
  H      112.178    -397.064      10.802
  H      110.493    -397.958       9.316
  H      112.350    -399.103       7.538
  H      117.733    -396.689      14.219
  H      113.061    -396.748       6.925
  H      117.775    -395.217      13.299
  H      111.309    -397.016       6.905
  P      109.792    -400.477       8.757
  C      110.813    -402.408       7.371
  O      109.963    -402.042       8.450
  O      109.286    -399.659       7.619
  O      108.720    -400.482       9.955
  H      107.869    -400.162       9.595
  H      110.835    -403.474       7.280
  H      111.802    -402.046       7.558
  H      110.442    -401.980       6.463

 6  7  8  9  10  11  12  13  14  15  16  26  30  31  32  33  35 0
 6-311+G(2d,p)
 ****
 37  38 0
 6-311+G(2d,p)
 ****
 1  2  3  4  5  17  18  19  20  21  22  23  24  25 0
 3-21G
 ****
 27  28  29  34  36  39  40  41  42  43  44  45  46 0
 3-21G
 ****


