%nproc=1
%NoSave
%Mem=1900MB
#P OB98/GEN NMR

erre ene a

0 1
  C     -185.664    -691.264    -178.630
  O     -185.484    -689.944    -178.113
  P     -184.256    -689.073    -178.667
  C     -185.386    -687.393    -180.374
  O     -184.786    -687.633    -179.125
  C     -186.498    -686.338    -180.212
  O     -187.604    -686.895    -179.472
  C     -186.039    -685.095    -179.457
  O     -185.444    -684.135    -180.340
  C     -187.330    -684.605    -178.823
  O     -188.157    -683.935    -179.809
  C     -187.970    -685.947    -178.408
  N     -187.600    -686.533    -177.103
  C     -187.810    -685.812    -175.929
  O     -188.303    -684.684    -175.889
  N     -187.447    -686.435    -174.757
  C     -187.062    -687.741    -174.628
  O     -186.797    -688.260    -173.555
  C     -187.005    -688.502    -175.885
  C     -187.256    -687.877    -177.039
  O     -183.866    -689.786    -180.035
  O     -183.105    -688.981    -177.716
  H     -188.415    -684.607    -180.451
  H     -182.970    -690.161    -179.970
  H     -187.530    -685.897    -173.914
  H     -186.740    -689.553    -175.820
  H     -187.210    -688.445    -177.968
  H     -189.077    -685.868    -178.415
  H     -187.144    -683.890    -178.034
  H     -185.348    -685.357    -178.659
  H     -186.882    -686.055    -181.204
  H     -185.806    -688.303    -180.796
  H     -184.625    -687.026    -181.076
  P     -184.009    -683.516    -179.995
  C     -183.053    -682.911    -182.297
  O     -183.718    -682.440    -181.143
  O     -182.925    -684.505    -179.731
  O     -184.292    -682.596    -178.711
  H     -184.090    -683.068    -177.879
  H     -183.062    -682.145    -183.055
  H     -183.563    -683.814    -182.688
  H     -182.016    -683.170    -182.042
  H     -186.517    -691.715    -178.168
  H     -184.794    -691.851    -178.421
  H     -185.816    -691.215    -179.688

 3  4  5  6  7  8  9  10  11  12  13  23  28  29  30  31  32 0
 6-311+G(2d,p)
 ****
 33  34 0
 6-311+G(2d,p)
 ****
 1  2  14  15  16  17  18  19  20  21  22  24  25  26  27 0
 3-21G
 ****
 35  36  37  38  39  40  41  42  43  44  45 0
 3-21G
 ****


