%nproc=1
%NoSave
%Mem=1900MB
#P OB98/GEN NMR

erre ene a

0 1
  C     -481.768      75.345     -16.721
  O     -480.574      76.036     -17.040
  H     -481.597      74.751     -15.818
  H     -482.048      74.670     -17.532
  H     -482.581      76.052     -16.527
  P     -480.569      76.976     -18.338
  C     -478.000      77.195     -18.148
  O     -479.103      76.838     -18.972
  C     -476.769      76.391     -18.544
  O     -477.018      74.980     -18.390
  C     -476.331      76.600     -19.998
  O     -475.579      77.794     -20.116
  C     -475.503      75.342     -20.213
  O     -474.217      75.495     -19.581
  C     -476.341      74.285     -19.475
  N     -477.154      71.573     -23.678
  C     -475.981      72.135     -23.194
  N     -474.884      71.982     -23.967
  N     -475.909      72.798     -22.073
  C     -477.098      72.925     -21.444
  C     -478.324      72.429     -21.835
  C     -478.387      71.652     -23.052
  O     -479.396      71.122     -23.507
  N     -479.323      72.818     -20.971
  C     -478.691      73.515     -20.044
  N     -477.341      73.619     -20.293
  O     -481.004      78.397     -18.128
  O     -481.503      76.206     -19.382
  H     -473.797      76.276     -19.993
  H     -482.425      76.512     -19.322
  H     -477.147      71.090     -24.564
  H     -479.161      73.960     -19.177
  H     -475.720      73.504     -19.027
  H     -475.322      75.127     -21.268
  H     -474.950      71.742     -24.947
  H     -477.186      76.575     -20.681
  H     -474.031      72.431     -23.658
  H     -475.958      76.653     -17.851
  H     -478.285      76.981     -17.111
  H     -477.785      78.265     -18.244
  P     -475.659      78.688     -21.450
  C     -473.792      80.210     -20.519
  O     -474.213      79.370     -21.582
  O     -476.811      79.639     -21.503
  O     -475.649      77.626     -22.648
  H     -476.550      77.308     -22.899
  H     -472.818      80.596     -20.734
  H     -473.760      79.646     -19.610
  H     -474.481      81.021     -20.411

 6  7  8  9  10  11  12  13  14  15  26  29  33  34 0
 6-311+G(2d,p)
 ****
 36  38  39  40  41 0
 6-311+G(2d,p)
 ****
 1  2  3  4  5  16  17  18  19  20  21  22  23  24  25 0
 3-21G
 ****
 27  28  30  31  32  35  37  42  43  44  45  46  47 0
 3-21G
 ****
 48  49 0
 3-21G
 ****


