%nproc=1
%NoSave
%Mem=1900MB
#P OB98/GEN NMR

erre ene a

0 1
  C       37.816      52.505      63.100
  O       37.179      53.056      61.965
  H       37.841      51.417      62.991
  H       37.253      52.749      64.004
  H       38.842      52.871      63.186
  P       37.097      54.651      61.823
  C       36.009      56.582      63.126
  O       36.204      55.177      63.050
  C       34.777      56.909      63.967
  O       33.597      56.795      63.130
  C       34.590      55.980      65.172
  O       34.090      56.751      66.264
  C       33.524      55.008      64.705
  O       32.780      54.456      65.789
  C       32.687      55.882      63.773
  N       28.490      53.202      62.925
  C       28.860      53.957      64.021
  N       27.997      53.985      65.059
  N       29.981      54.624      64.094
  C       30.744      54.519      62.979
  C       30.489      53.804      61.832
  C       29.250      53.057      61.768
  O       28.875      52.363      60.832
  N       31.519      53.926      60.932
  C       32.394      54.709      61.536
  N       31.974      55.087      62.784
  O       36.664      55.154      60.484
  O       38.568      55.150      62.199
  H       33.428      54.043      66.401
  H       39.081      55.350      61.394
  H       27.619      52.700      62.924
  H       33.342      55.025      61.121
  H       31.933      56.466      64.314
  H       33.992      54.182      64.154
  H       27.108      53.509      65.066
  H       35.513      55.471      65.465
  H       28.236      54.551      65.865
  H       34.841      57.956      64.285
  H       35.874      56.966      62.109
  H       36.898      57.049      63.565
  P       35.135      57.465      67.248
  C       36.752      56.787      69.135
  O       35.822      56.336      68.157
  O       34.617      58.653      67.989
  O       36.327      57.881      66.255
  H       36.757      58.688      66.599
  H       37.139      55.947      69.673
  H       36.260      57.451      69.815
  H       37.556      57.302      68.652

 6  7  8  9  10  11  12  13  14  15  26  29  33  34 0
 6-311+G(2d,p)
 ****
 36  38  39  40  41 0
 6-311+G(2d,p)
 ****
 1  2  3  4  5  16  17  18  19  20  21  22  23  24  25 0
 3-21G
 ****
 27  28  30  31  32  35  37  42  43  44  45  46  47 0
 3-21G
 ****
 48  49 0
 3-21G
 ****


