%nproc=1
%NoSave
%Mem=1900MB
#P OB98/GEN NMR

erre ene a

0 1
  C     -275.009    -146.294    -285.203
  O     -275.026    -145.266    -284.228
  P     -276.215    -144.188    -284.293
  C     -274.899    -142.483    -285.756
  O     -276.008    -143.360    -285.652
  C     -275.303    -141.184    -286.463
  O     -276.112    -141.521    -287.624
  C     -276.132    -140.215    -285.605
  O     -275.795    -138.889    -286.028
  C     -277.562    -140.532    -286.013
  O     -278.463    -139.469    -285.727
  C     -277.371    -140.827    -287.493
  N     -281.594    -140.877    -290.295
  C     -280.810    -139.804    -289.881
  N     -281.180    -138.590    -290.333
  N     -279.766    -139.923    -289.107
  C     -279.513    -141.208    -288.746
  C     -280.231    -142.337    -289.053
  C     -281.361    -142.197    -289.943
  O     -282.029    -143.128    -290.403
  N     -279.721    -143.447    -288.428
  C     -278.641    -142.995    -287.813
  N     -278.453    -141.653    -288.014
  O     -275.815    -143.144    -283.143
  O     -277.601    -144.739    -284.115
  H     -279.359    -139.761    -285.985
  H     -276.255    -143.367    -282.299
  H     -282.369    -140.724    -290.913
  H     -277.964    -143.592    -287.217
  H     -277.328    -139.918    -288.107
  H     -277.906    -141.421    -285.467
  H     -281.955    -138.427    -290.963
  H     -275.959    -140.332    -284.529
  H     -280.602    -137.794    -290.075
  H     -274.395    -140.692    -286.828
  H     -274.116    -142.972    -286.344
  H     -274.497    -142.268    -284.758
  P     -275.386    -137.825    -284.901
  C     -277.640    -136.553    -285.017
  O     -276.730    -137.289    -284.222
  O     -274.885    -136.565    -285.769
  O     -274.313    -138.279    -283.967
  H     -274.183    -136.096    -285.282
  H     -278.633    -136.609    -284.559
  H     -277.692    -136.942    -286.033
  H     -277.327    -135.506    -285.046
  H     -274.166    -146.931    -285.035
  H     -274.938    -145.859    -286.178
  H     -275.910    -146.868    -285.132

 3  4  5  6  7  8  9  10  11  12  23  26  30  31 0
 6-311+G(2d,p)
 ****
 33  35  36  37  38 0
 6-311+G(2d,p)
 ****
 1  2  13  14  15  16  17  18  19  20  21  22  24  25 0
 3-21G
 ****
 27  28  29  32  34  39  40  41  42  43  44  45  46  47  48  49 0
 3-21G
 ****


