%nproc=1
%NoSave
%Mem=1900MB
#P OB98/GEN NMR

erre ene a

0 1
  C      482.532    -442.288     366.709
  O      483.603    -443.213     366.579
  P      485.109    -442.730     366.340
  C      486.350    -444.067     368.156
  O      486.035    -443.974     366.770
  C      487.395    -445.155     368.421
  O      486.829    -446.460     368.099
  C      488.697    -445.000     367.605
  O      489.755    -445.489     368.443
  C      488.469    -445.943     366.437
  O      489.676    -446.312     365.779
  C      487.709    -447.087     367.132
  N      486.983    -447.918     366.179
  C      487.752    -448.640     365.251
  O      488.975    -448.497     365.219
  N      487.105    -449.466     364.355
  C      485.812    -449.483     364.326
  N      485.227    -450.315     363.413
  C      484.966    -448.641     365.190
  C      485.612    -447.897     366.094
  O      485.471    -441.427     366.962
  O      485.259    -442.741     364.740
  H      489.450    -446.928     365.047
  H      484.814    -441.938     364.347
  H      483.889    -448.652     365.087
  H      485.074    -447.255     366.779
  H      488.409    -447.729     367.690
  H      487.818    -445.448     365.695
  H      488.898    -443.972     367.293
  H      487.623    -445.153     369.492
  H      485.854    -450.893     362.846
  H      485.424    -444.331     368.690
  H      484.240    -450.469     363.357
  H      486.693    -443.100     368.535
  P      491.293    -445.218     368.083
  C      492.122    -444.458     370.387
  O      492.137    -445.490     369.421
  O      491.566    -443.906     367.423
  O      491.696    -446.450     367.133
  H      492.532    -446.233     366.665
  H      492.482    -444.852     371.339
  H      491.114    -444.067     370.529
  H      492.788    -443.650     370.068
  H      481.617    -442.821     366.862
  H      482.458    -441.700     365.818
  H      482.715    -441.646     367.545

 3  4  5  6  7  8  9  10  11  12  13  23  27  28  29  30  32 0
 6-311+G(2d,p)
 ****
 34  35 0
 6-311+G(2d,p)
 ****
 1  2  14  15  16  17  18  19  20  21  22  24  25  26 0
 3-21G
 ****
 31  33  36  37  38  39  40  41  42  43  44  45  46 0
 3-21G
 ****


