%nproc=1
%NoSave
%Mem=1900MB
#P OB98/GEN NMR

erre ene a

0 1
  C     -565.377      80.164     297.781
  O     -565.699      80.601     296.480
  P     -567.015      81.466     296.215
  C     -566.031      83.500     294.986
  O     -566.600      83.021     296.203
  C     -564.787      84.343     295.296
  O     -563.745      83.494     295.848
  C     -564.167      84.995     294.053
  O     -564.910      86.132     293.648
  C     -562.756      85.310     294.566
  O     -562.755      86.518     295.339
  C     -562.481      84.094     295.468
  N     -557.915      81.784     295.612
  C     -558.404      82.853     296.271
  N     -559.614      83.439     296.156
  C     -560.350      82.815     295.219
  C     -559.976      81.719     294.423
  C     -558.696      81.193     294.668
  N     -558.207      80.051     294.038
  N     -560.994      81.382     293.554
  C     -561.959      82.243     293.790
  N     -561.646      83.079     294.829
  O     -568.186      81.135     297.096
  O     -567.369      81.176     294.676
  H     -563.100      87.222     294.745
  H     -568.250      80.765     294.617
  H     -557.745      83.306     297.011
  H     -562.896      82.297     293.270
  H     -561.976      84.390     296.398
  H     -562.040      85.429     293.744
  H     -564.101      84.265     293.229
  H     -565.050      85.090     296.038
  H     -566.774      84.117     294.469
  H     -557.346      79.675     294.405
  H     -558.874      79.441     293.600
  H     -565.773      82.649     294.348
  P     -566.117      85.967     292.609
  C     -567.877      87.341     293.889
  O     -567.480      86.055     293.463
  O     -566.014      84.801     291.674
  O     -566.109      87.362     291.813
  H     -566.394      87.208     290.887
  H     -567.280      87.631     294.762
  H     -568.933      87.308     294.158
  H     -567.728      88.084     293.089
  H     -564.466      79.604     297.754
  H     -566.166      79.545     298.155
  H     -565.255      81.012     298.422

 3  4  5  6  7  8  9  10  11  12  22  25  29  30  31  32 0
 6-311+G(2d,p)
 ****
 33  36  37 0
 6-311+G(2d,p)
 ****
 1  2  13  14  15  16  17  18  19  20  21  23  24  26 0
 3-21G
 ****
 27  28  34  35  38  39  40  41  42  43  44  45  46  47  48 0
 3-21G
 ****


