%nproc=1
%NoSave
%Mem=1900MB
#P OB98/GEN NMR

erre ene a

0 1
  C      224.581    -518.908      44.293
  O      225.156    -517.738      43.733
  H      223.846    -519.300      43.585
  H      224.075    -518.661      45.231
  H      225.352    -519.663      44.464
  P      226.397    -517.095      44.531
  C      225.546    -515.924      46.733
  O      225.975    -517.118      46.080
  C      225.757    -516.035      48.240
  O      227.181    -516.178      48.508
  C      225.260    -514.819      49.027
  O      224.703    -515.275      50.267
  C      226.522    -514.013      49.290
  O      226.390    -513.149      50.430
  C      227.574    -515.132      49.424
  N      228.923    -514.652      49.130
  C      229.797    -514.528      50.226
  O      229.409    -514.776      51.364
  N      231.070    -514.061      50.003
  C      231.428    -513.699      48.812
  N      232.698    -513.230      48.658
  C      230.527    -513.769      47.631
  C      229.310    -514.268      47.862
  O      226.282    -515.550      44.126
  O      227.723    -517.728      44.221
  H      225.627    -512.554      50.261
  H      225.367    -515.222      44.117
  H      230.871    -513.447      46.662
  H      228.593    -514.360      47.049
  H      227.557    -515.546      50.433
  H      226.751    -513.385      48.420
  H      224.518    -514.236      48.494
  H      225.284    -516.962      48.599
  H      233.284    -513.182      49.494
  H      224.486    -515.736      46.522
  H      233.061    -512.868      47.787
  H      226.127    -515.096      46.327
  P      223.142    -515.067      50.551
  C      222.641    -512.946      51.909
  O      222.810    -513.503      50.615
  O      222.580    -515.884      51.665
  O      222.478    -515.510      49.153
  H      221.641    -515.994      49.347
  H      222.424    -511.902      51.822
  H      223.540    -513.078      52.474
  H      221.831    -513.438      52.406

 6  7  8  9  10  11  12  13  14  15  16  26  30  31  32  33  35 0
 6-311+G(2d,p)
 ****
 37  38 0
 6-311+G(2d,p)
 ****
 1  2  3  4  5  17  18  19  20  21  22  23  24  25 0
 3-21G
 ****
 27  28  29  34  36  39  40  41  42  43  44  45  46 0
 3-21G
 ****


