%nproc=1
%NoSave
%Mem=1900MB
#P OB98/GEN NMR

erre ene a

0 1
  C     -795.521     401.041      65.100
  O     -795.199     399.658      65.192
  P     -796.137     398.733      66.113
  C     -794.772     396.804      65.049
  O     -795.380     397.322      66.217
  C     -794.356     395.350      65.246
  O     -795.505     394.533      65.560
  C     -793.708     394.705      64.029
  O     -792.336     395.008      63.917
  C     -793.880     393.227      64.373
  O     -792.886     392.816      65.317
  C     -795.268     393.212      65.024
  N     -798.035     389.343      63.126
  C     -796.978     389.359      63.982
  N     -796.295     390.424      64.422
  C     -796.758     391.570      63.877
  C     -797.803     391.690      62.970
  C     -798.467     390.516      62.599
  N     -799.555     390.504      61.737
  N     -797.982     393.015      62.635
  C     -797.085     393.676      63.329
  N     -796.333     392.852      64.105
  O     -797.380     398.417      65.163
  O     -796.560     399.351      67.402
  H     -792.012     393.039      64.926
  H     -798.169     398.187      65.697
  H     -796.659     388.401      64.349
  H     -796.965     394.763      63.307
  H     -795.319     392.502      65.881
  H     -793.790     392.571      63.502
  H     -794.263     394.932      63.111
  H     -793.665     395.311      66.114
  H     -793.897     397.404      64.791
  H     -800.083     389.641      61.670
  H     -799.990     391.383      61.501
  H     -795.495     396.876      64.211
  P     -791.702     394.924      62.428
  C     -790.157     396.773      63.441
  O     -790.304     395.691      62.538
  O     -792.616     395.932      61.589
  O     -791.668     393.559      61.863
  H     -792.625     395.685      60.641
  H     -789.104     396.965      63.613
  H     -790.634     396.551      64.391
  H     -790.625     397.682      63.014
  H     -794.817     401.529      64.458
  H     -795.481     401.482      66.074
  H     -796.507     401.152      64.698

 3  4  5  6  7  8  9  10  11  12  22  25  29  30  31  32 0
 6-311+G(2d,p)
 ****
 33  36  37 0
 6-311+G(2d,p)
 ****
 1  2  13  14  15  16  17  18  19  20  21  23  24  26 0
 3-21G
 ****
 27  28  34  35  38  39  40  41  42  43  44  45  46  47  48 0
 3-21G
 ****


