%nproc=1
%NoSave
%Mem=1900MB
#P OB98/GEN NMR

erre ene a

0 1
  C      -60.901     370.288    -239.977
  O      -60.498     370.018    -241.306
  H      -60.858     369.360    -239.404
  H      -61.929     370.664    -239.965
  H      -60.229     371.019    -239.521
  P      -60.471     371.268    -242.314
  C      -57.934     371.778    -242.420
  O      -59.191     372.118    -241.852
  C      -56.909     372.879    -242.153
  O      -57.265     374.086    -242.853
  C      -56.789     373.276    -240.684
  O      -55.967     372.360    -239.980
  C      -56.131     374.640    -240.812
  O      -54.716     374.479    -241.040
  C      -56.801     375.222    -242.073
  N      -58.225     379.908    -240.543
  C      -57.029     379.285    -240.522
  N      -56.733     378.022    -240.905
  C      -57.830     377.387    -241.350
  C      -59.120     377.898    -241.428
  C      -59.298     379.228    -241.011
  N      -60.522     379.865    -241.042
  N      -59.988     376.957    -241.935
  C      -59.228     375.908    -242.203
  N      -57.922     376.110    -241.835
  O      -61.751     372.016    -242.449
  O      -59.945     370.567    -243.657
  H      -54.391     373.813    -240.411
  H      -59.265     369.900    -243.451
  H      -56.195     379.873    -240.150
  H      -59.570     375.001    -242.679
  H      -56.087     375.775    -242.691
  H      -56.240     375.239    -239.906
  H      -57.769     373.392    -240.218
  H      -55.943     372.544    -242.550
  H      -58.036     371.624    -243.502
  H      -60.594     380.751    -240.567
  H      -61.335     379.318    -241.274
  H      -57.609     370.841    -241.970
  P      -56.364     371.872    -238.504
  C      -55.946     369.356    -238.828
  O      -56.925     370.373    -238.654
  O      -57.262     372.793    -237.755
  O      -54.966     371.662    -237.758
  H      -55.033     371.950    -236.830
  H      -56.430     368.406    -238.916
  H      -55.290     369.345    -237.983
  H      -55.382     369.552    -239.716

 6  7  8  9  10  11  12  13  14  15  25  28  32  33  34  35 0
 6-311+G(2d,p)
 ****
 36  39  40 0
 6-311+G(2d,p)
 ****
 1  2  3  4  5  16  17  18  19  20  21  22  23  24 0
 3-21G
 ****
 26  27  29  30  31  37  38  41  42  43  44  45  46  47 0
 3-21G
 ****
 48 0
 3-21G
 ****


