%nproc=1
%NoSave
%Mem=1900MB
#P OB98/GEN NMR

erre ene a

0 1
  C      142.551     -12.744      29.135
  O      141.462     -13.191      28.338
  P      141.645     -14.542      27.493
  C      142.127     -12.974      25.484
  O      142.485     -14.161      26.177
  C      143.137     -12.652      24.383
  O      144.416     -12.329      24.992
  C      143.384     -13.796      23.393
  O      143.654     -13.203      22.118
  C      144.653     -14.439      23.920
  O      145.327     -15.202      22.923
  C      145.405     -13.200      24.402
  N      150.237     -14.744      25.041
  C      149.517     -14.485      23.929
  N      148.234     -14.076      23.840
  C      147.693     -13.942      25.062
  C      148.293     -14.203      26.282
  C      149.635     -14.622      26.247
  N      150.374     -14.876      27.378
  N      147.408     -13.975      27.316
  C      146.295     -13.584      26.731
  N      146.426     -13.525      25.373
  O      140.169     -14.805      26.932
  O      142.151     -15.712      28.264
  H      144.797     -16.001      22.741
  H      139.789     -15.598      27.356
  H      150.042     -14.617      22.986
  H      145.375     -13.336      27.242
  H      145.882     -12.659      23.576
  H      144.411     -15.108      24.753
  H      142.554     -14.506      23.313
  H      142.795     -11.754      23.853
  H      142.112     -12.144      26.197
  H      151.363     -15.036      27.277
  H      149.996     -14.606      28.280
  H      141.125     -13.086      25.060
  P      143.296     -14.074      20.820
  C      145.711     -14.930      20.416
  O      144.375     -15.254      20.745
  O      143.699     -13.111      19.605
  O      141.864     -14.490      20.740
  H      143.156     -13.317      18.822
  H      146.381     -15.612      20.947
  H      145.961     -13.901      20.694
  H      145.856     -15.054      19.339
  H      142.279     -11.838      29.635
  H      143.401     -12.565      28.510
  H      142.793     -13.492      29.860

 3  4  5  6  7  8  9  10  11  12  22  25  29  30  31  32 0
 6-311+G(2d,p)
 ****
 33  36  37 0
 6-311+G(2d,p)
 ****
 1  2  13  14  15  16  17  18  19  20  21  23  24  26 0
 3-21G
 ****
 27  28  34  35  38  39  40  41  42  43  44  45  46  47  48 0
 3-21G
 ****


