%nproc=1
%NoSave
%Mem=1900MB
#P OB98/GEN NMR

erre ene a

0 1
  C      533.109     573.134     427.271
  O      532.181     572.510     426.416
  H      533.139     574.202     427.041
  H      534.110     572.716     427.108
  H      532.826     573.008     428.321
  P      531.808     570.969     426.666
  C      532.474     570.290     424.258
  O      531.445     570.341     425.239
  C      531.911     570.583     422.855
  O      531.832     572.038     422.688
  C      532.775     570.040     421.700
  O      531.882     569.748     420.616
  C      533.638     571.253     421.395
  O      534.347     571.118     420.187
  C      532.571     572.354     421.491
  N      533.083     573.708     421.543
  C      533.687     574.221     420.396
  O      533.818     573.605     419.338
  N      534.153     575.507     420.485
  C      534.078     576.314     421.590
  O      534.488     577.476     421.603
  C      533.437     575.721     422.770
  C      532.969     574.469     422.697
  O      530.813     570.706     427.752
  O      533.227     570.290     426.993
  H      533.309     570.155     427.957
  H      535.031     570.434     420.296
  H      534.599     575.900     419.667
  H      533.360     576.332     423.659
  H      532.479     574.011     423.552
  H      531.870     572.256     420.649
  H      534.394     571.375     422.182
  H      533.332     569.137     421.977
  H      530.886     570.204     422.806
  H      532.915     569.287     424.277
  H      533.244     571.029     424.515
  P      532.040     568.458     419.663
  C      531.591     569.661     417.420
  O      531.135     568.695     418.351
  O      531.766     567.156     420.356
  O      533.549     568.513     419.113
  H      533.846     567.611     418.897
  H      530.904     569.720     416.602
  H      532.556     569.377     417.056
  H      531.657     570.615     417.900

 6  7  8  9  10  11  12  13  14  15  16  27  31  32  33  34  35 0
 6-311+G(2d,p)
 ****
 36  37 0
 6-311+G(2d,p)
 ****
 1  2  3  4  5  17  18  19  20  21  22  23  24  25 0
 3-21G
 ****
 26  28  29  30  38  39  40  41  42  43  44  45 0
 3-21G
 ****


