%nproc=1
%NoSave
%Mem=1900MB
#P OB98/GEN NMR

erre ene a

0 1
  C       83.366      65.746    -163.228
  O       83.725      66.797    -164.101
  H       82.821      66.167    -162.379
  H       84.255      65.232    -162.850
  H       82.716      65.034    -163.742
  P       84.676      66.474    -165.350
  C       86.769      66.862    -163.897
  O       86.069      65.956    -164.740
  C       88.196      67.078    -164.400
  O       88.877      65.793    -164.425
  C       88.267      67.683    -165.808
  O       89.374      68.586    -165.854
  C       88.534      66.469    -166.675
  O       89.149      66.828    -167.897
  C       89.384      65.587    -165.755
  N       89.315      64.183    -166.158
  C       90.486      63.625    -166.682
  O       91.510      64.303    -166.774
  N       90.456      62.336    -167.151
  C       89.340      61.676    -167.152
  N       89.371      60.418    -167.668
  C       88.073      62.235    -166.634
  C       88.133      63.477    -166.155
  O       84.807      67.551    -166.375
  O       84.039      65.145    -165.975
  H       88.573      67.461    -168.378
  H       83.381      65.378    -166.656
  H       87.168      61.646    -166.661
  H       87.249      63.972    -165.764
  H       90.433      65.906    -165.770
  H       87.586      65.969    -166.910
  H       87.348      68.200    -166.098
  H       88.730      67.705    -163.676
  H       90.256      60.090    -168.033
  H       86.794      66.432    -162.889
  H       88.560      59.827    -167.759
  H       86.236      67.819    -163.858
  P       89.163      70.151    -165.567
  C       89.301      70.819    -168.034
  O       88.496      70.837    -166.860
  O       90.370      70.860    -165.044
  O       87.980      70.184    -164.482
  H       88.090      70.968    -163.911
  H       88.775      71.295    -168.835
  H       89.518      69.806    -168.302
  H       90.216      71.342    -167.847

 6  7  8  9  10  11  12  13  14  15  16  26  30  31  32  33  35 0
 6-311+G(2d,p)
 ****
 37  38 0
 6-311+G(2d,p)
 ****
 1  2  3  4  5  17  18  19  20  21  22  23  24  25 0
 3-21G
 ****
 27  28  29  34  36  39  40  41  42  43  44  45  46 0
 3-21G
 ****


