%nproc=1
%NoSave
%Mem=1900MB
#P OB98/GEN NMR

erre ene a

0 1
  C       93.650      37.330    -218.209
  O       93.139      36.924    -216.932
  P       91.572      36.766    -216.621
  C       91.224      38.836    -215.121
  O       90.929      38.216    -216.365
  C       90.895      40.334    -215.138
  O       91.078      40.903    -213.808
  C       91.753      41.161    -216.113
  O       90.886      42.144    -216.690
  C       92.771      41.795    -215.176
  O       93.427      42.922    -215.726
  C       91.866      42.102    -213.978
  N       92.559      42.447    -212.742
  C       92.762      43.805    -212.466
  O       92.425      44.678    -213.264
  N       93.375      44.150    -211.284
  C       93.754      43.229    -210.455
  N       94.343      43.640    -209.299
  C       93.576      41.790    -210.712
  C       92.976      41.475    -211.859
  O       91.274      35.788    -215.528
  O       90.908      36.290    -217.997
  H       90.181      35.669    -217.805
  H       93.983      43.317    -215.029
  H       93.901      41.055    -209.990
  H       92.782      40.435    -212.110
  H       91.170      42.906    -214.245
  H       93.534      41.049    -214.932
  H       92.198      40.566    -216.919
  H       89.831      40.443    -215.382
  H       94.438      44.638    -209.153
  H       92.290      38.712    -214.915
  H       94.669      43.011    -208.580
  H       90.659      38.332    -214.328
  P       90.178      41.848    -218.098
  C       91.732      43.394    -219.506
  O       91.267      42.085    -219.249
  O       89.236      43.138    -218.269
  O       89.360      40.600    -218.177
  H       88.484      42.909    -218.844
  H       92.819      43.364    -219.622
  H       91.485      44.087    -218.698
  H       91.285      43.755    -220.437
  H       94.719      37.363    -218.172
  H       93.272      38.301    -218.452
  H       93.340      36.629    -218.956

 3  4  5  6  7  8  9  10  11  12  13  24  27  28  29  30  32 0
 6-311+G(2d,p)
 ****
 34  35 0
 6-311+G(2d,p)
 ****
 1  2  14  15  16  17  18  19  20  21  22  23  25  26 0
 3-21G
 ****
 31  33  36  37  38  39  40  41  42  43  44  45  46 0
 3-21G
 ****


