%nproc=1
%NoSave
%Mem=1900MB
#P OB98/GEN NMR

erre ene a

0 1
  C      104.037     -60.758     318.153
  O      102.846     -60.251     318.709
  H      103.788     -61.310     317.243
  H      104.521     -61.448     318.849
  H      104.720     -59.946     317.894
  P      102.909     -59.428     320.087
  C      102.276     -57.224     318.933
  O      103.279     -57.919     319.662
  C      102.271     -55.735     319.286
  O      103.561     -55.154     318.951
  C      101.193     -54.928     318.545
  O      100.505     -54.082     319.469
  C      101.992     -54.077     317.571
  O      101.308     -52.891     317.177
  C      103.286     -53.869     318.362
  N      104.377     -53.401     317.518
  C      104.718     -52.051     317.644
  O      104.113     -51.330     318.441
  N      105.694     -51.535     316.832
  C      106.248     -52.291     315.936
  N      107.187     -51.711     315.143
  C      105.898     -53.715     315.749
  C      104.966     -54.201     316.568
  O      103.793     -60.025     321.128
  O      101.385     -59.297     320.556
  H      101.123     -52.356     317.979
  H      101.363     -59.131     321.526
  H      106.386     -54.299     314.984
  H      104.643     -55.234     316.506
  H      103.137     -53.147     319.176
  H      102.199     -54.663     316.666
  H      100.467     -55.555     318.028
  H      102.163     -55.637     320.373
  H      107.391     -50.730     315.300
  H      101.301     -57.674     319.161
  H      107.668     -52.191     314.396
  H      102.483     -57.337     317.865
  P       99.265     -54.741     320.246
  C      100.556     -56.115     322.030
  O       99.754     -56.142     320.859
  O       98.270     -55.161     319.065
  O       98.610     -53.814     321.214
  H       97.480     -54.588     319.079
  H      100.802     -57.116     322.317
  H      100.015     -55.639     322.822
  H      101.455     -55.569     321.834

 6  7  8  9  10  11  12  13  14  15  16  26  30  31  32  33  35 0
 6-311+G(2d,p)
 ****
 37  38 0
 6-311+G(2d,p)
 ****
 1  2  3  4  5  17  18  19  20  21  22  23  24  25 0
 3-21G
 ****
 27  28  29  34  36  39  40  41  42  43  44  45  46 0
 3-21G
 ****


