%nproc=1
%NoSave
%Mem=1900MB
#P OB98/GEN NMR

erre ene a

0 1
  C      279.025     -25.563      69.540
  O      280.053     -26.353      68.956
  P      281.469     -26.422      69.702
  C      282.200     -24.429      68.209
  O      282.168     -24.986      69.518
  C      282.990     -23.119      68.187
  O      282.310     -22.142      69.022
  C      284.430     -23.234      68.703
  O      285.221     -22.295      67.969
  C      284.315     -22.762      70.145
  O      285.567     -22.335      70.677
  C      283.270     -21.658      69.989
  N      282.694     -18.154      73.668
  C      283.411     -18.144      72.523
  N      283.513     -19.118      71.593
  C      282.777     -20.186      71.939
  C      282.020     -20.350      73.090
  C      281.990     -19.265      73.984
  N      281.251     -19.267      75.145
  N      281.427     -21.597      73.105
  C      281.818     -22.172      71.985
  N      282.612     -21.347      71.239
  O      282.323     -27.378      68.741
  O      281.434     -26.944      71.096
  H      285.422     -22.039      71.596
  H      282.502     -28.228      69.187
  H      283.974     -17.233      72.328
  H      281.553     -23.175      71.673
  H      283.706     -20.732      69.597
  H      283.941     -23.579      70.774
  H      284.857     -24.236      68.624
  H      282.982     -22.728      67.162
  H      281.175     -24.226      67.887
  H      281.168     -18.405      75.664
  H      280.577     -20.012      75.297
  H      282.647     -25.148      67.516
  P      286.687     -22.772      67.523
  C      287.833     -21.665      69.574
  O      287.569     -22.857      68.854
  O      287.276     -21.494      66.754
  O      286.692     -23.984      66.651
  H      287.930     -21.774      66.088
  H      287.881     -21.899      70.639
  H      287.049     -20.914      69.413
  H      288.790     -21.256      69.249
  H      278.146     -25.615      68.932
  H      279.352     -24.546      69.608
  H      278.804     -25.933      70.519

 3  4  5  6  7  8  9  10  11  12  22  25  29  30  31  32 0
 6-311+G(2d,p)
 ****
 33  36  37 0
 6-311+G(2d,p)
 ****
 1  2  13  14  15  16  17  18  19  20  21  23  24  26 0
 3-21G
 ****
 27  28  34  35  38  39  40  41  42  43  44  45  46  47  48 0
 3-21G
 ****


