%nproc=1
%NoSave
%Mem=1900MB
#P OB98/GEN NMR

erre ene a

0 1
  C      355.727      -2.745     -78.051
  O      355.661      -1.329     -78.073
  P      356.586      -0.526     -77.033
  C      359.134      -0.030     -76.968
  O      358.103      -0.921     -77.379
  C      360.485      -0.745     -76.882
  O      360.514      -1.551     -75.680
  C      360.787      -1.659     -78.073
  O      362.185      -1.567     -78.351
  C      360.481      -3.046     -77.540
  O      361.191      -4.054     -78.255
  C      360.878      -2.892     -76.064
  N      360.231      -3.886     -75.213
  C      360.648      -5.212     -75.359
  O      361.465      -5.509     -76.229
  N      360.090      -6.172     -74.553
  C      359.124      -5.857     -73.748
  N      358.609      -6.844     -72.968
  C      358.570      -4.491     -73.654
  C      359.177      -3.562     -74.390
  O      356.312      -1.288     -75.652
  O      356.298       0.933     -76.940
  H      362.147      -3.824     -78.234
  H      356.375      -0.673     -74.898
  H      357.739      -4.289     -72.991
  H      358.855      -2.530     -74.366
  H      361.965      -2.989     -75.944
  H      359.406      -3.251     -77.629
  H      360.212      -1.396     -78.966
  H      361.268       0.016     -76.782
  H      358.996      -7.773     -73.060
  H      358.893       0.361     -75.976
  H      357.852      -6.689     -72.311
  H      359.187       0.811     -77.665
  P      362.658      -1.807     -79.865
  C      362.519      -0.368     -81.986
  O      361.979      -0.620     -80.705
  O      361.748      -3.059     -80.290
  O      364.101      -2.079     -80.121
  H      361.987      -3.349     -81.188
  H      361.883       0.362     -82.496
  H      362.547      -1.284     -82.579
  H      363.526       0.051     -81.891
  H      355.064      -3.144     -78.790
  H      355.439      -3.101     -77.084
  H      356.728      -3.059     -78.263

 3  4  5  6  7  8  9  10  11  12  13  21  23  27  28  29  30  32 0
 6-311+G(2d,p)
 ****
 34  35 0
 6-311+G(2d,p)
 ****
 1  2  14  15  16  17  18  19  20  22  24  25  26 0
 3-21G
 ****
 31  33  36  37  38  39  40  41  42  43  44  45  46 0
 3-21G
 ****


