%nproc=1
%NoSave
%Mem=1900MB
#P OB98/GEN NMR

erre ene a

0 1
  C      -76.162      12.364     -89.553
  O      -75.845      12.285     -90.943
  P      -76.894      12.863     -92.008
  C      -75.221      13.596     -93.823
  O      -76.167      14.020     -92.849
  C      -73.910      14.369     -93.676
  O      -73.279      14.116     -92.405
  C      -72.872      13.995     -94.722
  O      -73.200      14.550     -95.983
  C      -71.599      14.533     -94.086
  O      -71.456      15.942     -94.333
  C      -71.856      14.284     -92.583
  N      -71.115      13.150     -92.054
  C      -70.082      13.456     -91.161
  O      -69.818      14.629     -90.895
  N      -69.366      12.424     -90.608
  C      -69.651      11.198     -90.923
  N      -68.911      10.217     -90.341
  C      -70.723      10.836     -91.869
  C      -71.402      11.851     -92.397
  O      -78.237      13.220     -91.464
  O      -77.003      11.674     -93.079
  H      -70.653      16.219     -93.849
  H      -77.897      11.686     -93.474
  H      -70.927       9.799     -92.095
  H      -72.206      11.674     -93.104
  H      -71.576      15.171     -92.000
  H      -70.706      14.043     -94.484
  H      -72.808      12.902     -94.805
  H      -74.137      15.442     -93.746
  H      -68.173      10.493     -89.705
  H      -75.633      13.749     -94.823
  H      -69.089       9.233     -90.484
  H      -75.057      12.519     -93.711
  P      -74.066      13.652     -96.989
  C      -75.287      15.789     -97.803
  O      -75.404      14.461     -97.335
  O      -74.587      12.461     -96.050
  O      -73.313      13.122     -98.165
  H      -74.645      11.638     -96.569
  H      -76.228      16.076     -98.281
  H      -74.478      15.888     -98.532
  H      -75.102      16.461     -96.959
  H      -75.365      11.938     -88.981
  H      -77.066      11.824     -89.362
  H      -76.293      13.389     -89.275

 3  4  5  6  7  8  9  10  11  12  13  23  27  28  29  30  32 0
 6-311+G(2d,p)
 ****
 34  35 0
 6-311+G(2d,p)
 ****
 1  2  14  15  16  17  18  19  20  21  22  24  25  26 0
 3-21G
 ****
 31  33  36  37  38  39  40  41  42  43  44  45  46 0
 3-21G
 ****


