%nproc=1
%NoSave
%Mem=1900MB
#P OB98/GEN NMR

erre ene a

0 1
  C      375.071    -304.251    -409.539
  O      375.637    -303.933    -410.790
  H      375.849    -304.694    -408.910
  H      374.269    -304.984    -409.657
  H      374.690    -303.354    -409.047
  P      374.705    -303.305    -411.936
  C      375.876    -301.100    -412.530
  O      374.843    -301.709    -411.767
  C      377.048    -300.686    -411.640
  O      377.568    -301.855    -410.948
  C      378.214    -300.048    -412.408
  O      378.642    -298.860    -411.739
  C      379.311    -301.100    -412.331
  O      380.620    -300.554    -412.474
  C      379.001    -301.739    -410.974
  N      379.666    -303.025    -410.808
  C      381.041    -302.980    -410.557
  O      381.621    -301.898    -410.477
  N      381.732    -304.159    -410.454
  C      381.116    -305.284    -410.637
  N      381.866    -306.414    -410.550
  C      379.670    -305.377    -410.933
  C      379.014    -304.220    -411.001
  O      373.305    -303.819    -411.954
  O      375.492    -303.583    -413.302
  H      381.267    -301.201    -412.118
  H      374.852    -303.553    -414.051
  H      379.205    -306.339    -411.082
  H      377.949    -304.187    -411.215
  H      379.305    -301.081    -410.149
  H      379.164    -301.835    -413.131
  H      377.966    -299.805    -413.440
  H      376.671    -300.012    -410.860
  H      382.854    -306.305    -410.351
  H      375.462    -300.226    -413.046
  H      381.503    -307.344    -410.697
  H      376.230    -301.822    -413.273
  P      377.810    -297.526    -412.062
  C      377.481    -296.711    -409.621
  O      376.870    -297.212    -410.798
  O      376.788    -297.997    -413.200
  O      378.662    -296.391    -412.522
  H      377.033    -297.589    -414.053
  H      376.734    -296.551    -408.872
  H      377.970    -295.785    -409.840
  H      378.200    -297.418    -409.263

 6  7  8  9  10  11  12  13  14  15  16  26  30  31  32  33  35 0
 6-311+G(2d,p)
 ****
 37  38 0
 6-311+G(2d,p)
 ****
 1  2  3  4  5  17  18  19  20  21  22  23  24  25 0
 3-21G
 ****
 27  28  29  34  36  39  40  41  42  43  44  45  46 0
 3-21G
 ****


