%nproc=1
%NoSave
%Mem=1900MB
#P OB98/GEN NMR

erre ene a

0 1
  C       62.843      64.391    -175.135
  O       62.572      65.025    -173.892
  P       62.246      64.100    -172.624
  C       64.685      64.211    -171.749
  O       63.621      63.384    -172.200
  C       64.743      64.252    -170.222
  O       64.902      62.898    -169.719
  C       65.894      65.086    -169.651
  O       65.433      65.665    -168.424
  C       66.951      64.042    -169.340
  O       67.901      64.505    -168.384
  C       66.068      62.892    -168.866
  N       69.643      59.893    -166.777
  C       69.183      61.115    -166.434
  N       68.228      61.850    -167.040
  C       67.735      61.200    -168.108
  C       68.129      59.966    -168.597
  C       69.133      59.295    -167.879
  N       69.595      58.045    -168.219
  N       67.410      59.643    -169.730
  C       66.599      60.663    -169.921
  N       66.741      61.615    -168.952
  O       61.388      62.912    -173.266
  O       61.504      64.772    -171.521
  H       68.148      65.420    -168.616
  H       60.464      62.966    -172.958
  H       69.638      61.559    -165.552
  H       65.897      60.758    -170.738
  H       65.729      63.027    -167.831
  H       67.493      63.780    -170.255
  H       66.259      65.867    -170.326
  H       63.780      64.623    -169.850
  H       64.520      65.227    -172.119
  H       70.213      57.573    -167.579
  H       69.092      57.513    -168.921
  H       65.632      63.843    -172.154
  P       66.006      67.112    -168.041
  C       64.001      68.309    -169.167
  O       65.403      68.143    -169.107
  O       67.555      67.013    -168.441
  O       65.831      67.477    -166.605
  H       68.081      67.618    -167.886
  H       63.779      69.345    -169.437
  H       63.522      68.082    -168.210
  H       63.594      67.647    -169.936
  H       63.041      65.134    -175.879
  H       61.996      63.808    -175.430
  H       63.696      63.754    -175.032

 3  4  5  6  7  8  9  10  11  12  22  25  29  30  31  32 0
 6-311+G(2d,p)
 ****
 33  36  37 0
 6-311+G(2d,p)
 ****
 1  2  13  14  15  16  17  18  19  20  21  23  24  26 0
 3-21G
 ****
 27  28  34  35  38  39  40  41  42  43  44  45  46  47  48 0
 3-21G
 ****


