%nproc=1
%NoSave
%Mem=1900MB
#P OB98/GEN NMR

erre ene a

0 1
  C       57.115     649.474    -117.865
  O       56.560     648.245    -117.406
  P       56.272     648.091    -115.842
  C       57.731     645.995    -115.323
  O       56.420     646.525    -115.500
  C       57.800     644.537    -115.814
  O       56.749     643.785    -115.147
  C       57.626     644.360    -117.318
  O       58.460     643.268    -117.702
  C       56.151     643.992    -117.420
  O       55.798     643.395    -118.656
  C       56.007     643.119    -116.184
  N       51.809     640.208    -116.721
  C       53.079     640.078    -117.207
  N       54.144     640.891    -117.014
  C       53.793     641.931    -116.223
  C       52.568     642.214    -115.688
  C       51.526     641.288    -115.956
  N       50.251     641.432    -115.477
  N       52.603     643.376    -114.946
  C       53.848     643.792    -115.053
  N       54.622     642.943    -115.798
  O       54.697     648.342    -115.720
  O       57.052     649.014    -114.953
  H       54.875     643.100    -118.638
  H       54.483     648.844    -114.926
  H       53.246     639.203    -117.838
  H       54.226     644.705    -114.623
  H       56.429     642.116    -116.324
  H       55.554     644.912    -117.332
  H       57.916     645.247    -117.900
  H       58.760     644.114    -115.477
  H       57.982     646.024    -114.253
  H       49.540     640.840    -115.898
  H       49.998     642.336    -115.074
  H       58.452     646.614    -115.854
  P       58.989     643.153    -119.206
  C       57.780     640.919    -119.521
  O       59.029     641.570    -119.496
  O       60.541     643.490    -119.021
  O       58.275     644.024    -120.201
  H       60.953     642.944    -118.324
  H       57.928     639.867    -119.824
  H       57.090     641.389    -120.249
  H       57.322     640.915    -118.527
  H       57.251     649.430    -118.925
  H       58.060     649.638    -117.391
  H       56.451     650.277    -117.624

 3  4  5  6  7  8  9  10  11  12  22  25  29  30  31  32 0
 6-311+G(2d,p)
 ****
 33  36  37 0
 6-311+G(2d,p)
 ****
 1  2  13  14  15  16  17  18  19  20  21  23  24  26 0
 3-21G
 ****
 27  28  34  35  38  39  40  41  42  43  44  45  46  47  48 0
 3-21G
 ****


