%nproc=1
%NoSave
%Mem=1900MB
#P OB98/GEN NMR

erre ene a

0 1
  C     -238.557    -166.289     -25.314
  O     -238.201    -166.417     -26.694
  P     -237.714    -167.865     -27.197
  C     -238.386    -167.543     -29.706
  O     -237.346    -167.686     -28.753
  C     -238.921    -166.105     -29.714
  O     -237.814    -165.165     -29.855
  C     -239.923    -165.812     -30.835
  O     -240.909    -164.920     -30.289
  C     -239.083    -165.089     -31.870
  O     -239.869    -164.301     -32.750
  C     -238.134    -164.298     -30.962
  N     -236.929    -163.847     -31.656
  C     -236.707    -162.476     -31.700
  O     -237.508    -161.652     -31.258
  N     -235.550    -162.076     -32.316
  C     -234.657    -162.896     -32.944
  O     -233.632    -162.486     -33.480
  C     -235.001    -164.327     -32.963
  C     -236.107    -164.729     -32.328
  O     -239.089    -168.674     -27.207
  O     -236.636    -168.446     -26.345
  H     -239.856    -168.142     -27.483
  H     -239.277    -163.786     -33.332
  H     -235.353    -161.090     -32.332
  H     -234.347    -164.998     -33.503
  H     -236.403    -165.769     -32.343
  H     -238.643    -163.422     -30.548
  H     -238.522    -165.820     -32.470
  H     -240.412    -166.710     -31.217
  H     -239.387    -165.910     -28.740
  H     -239.207    -168.223     -29.465
  H     -238.009    -167.830     -30.693
  P     -242.382    -165.502     -29.986
  C     -243.047    -163.628     -28.291
  O     -243.289    -164.268     -29.520
  O     -242.096    -166.282     -28.616
  O     -242.937    -166.388     -31.053
  H     -241.593    -165.754     -27.976
  H     -243.603    -162.682     -28.270
  H     -241.984    -163.404     -28.161
  H     -243.395    -164.255     -27.467
  H     -238.860    -165.282     -25.116
  H     -237.713    -166.534     -24.704
  H     -239.364    -166.955     -25.091

 3  4  5  6  7  8  9  10  11  12  13  24  28  29  30  31  32 0
 6-311+G(2d,p)
 ****
 33  34 0
 6-311+G(2d,p)
 ****
 1  2  14  15  16  17  18  19  20  21  22  23  25  26  27 0
 3-21G
 ****
 35  36  37  38  39  40  41  42  43  44  45 0
 3-21G
 ****


