%nproc=1
%NoSave
%Mem=1900MB
#P OB98/GEN NMR

erre ene a

0 1
  C       -8.155     -54.499     144.052
  O       -8.594     -55.784     143.653
  H       -8.115     -54.464     145.144
  H       -8.860     -53.740     143.701
  H       -7.158     -54.293     143.654
  P       -8.497     -56.114     142.089
  C      -10.835     -55.340     141.187
  O       -9.991     -56.416     141.571
  C      -12.199     -55.871     140.757
  O      -13.039     -54.801     140.282
  C      -12.152     -56.839     139.587
  O      -11.635     -58.101     139.944
  C      -13.621     -56.875     139.191
  O      -14.360     -57.812     139.982
  C      -14.077     -55.425     139.488
  N      -14.362     -54.689     138.270
  C      -15.272     -53.633     138.408
  O      -15.754     -53.372     139.511
  N      -15.635     -52.930     137.289
  C      -15.158     -53.268     136.132
  N      -15.585     -52.550     135.059
  C      -14.199     -54.375     135.944
  C      -13.847     -55.038     137.045
  O       -7.811     -57.558     142.083
  O       -7.778     -55.092     141.277
  H      -14.295     -57.500     140.909
  H       -8.227     -58.192     142.689
  H      -13.819     -54.607     134.960
  H      -13.147     -55.865     136.999
  H      -14.984     -55.428     140.107
  H      -13.750     -57.170     138.146
  H      -11.585     -56.398     138.755
  H      -12.678     -56.328     141.633
  H      -16.284     -51.837     135.225
  H      -10.378     -54.764     140.375
  H      -15.343     -52.771     134.104
  H      -10.938     -54.673     142.048
  P      -10.212     -58.602     139.407
  C      -11.293     -59.687     137.336
  O      -10.492     -59.895     138.494
  O       -9.169     -58.804     140.454
  O       -9.831     -57.498     138.311
  H      -10.464     -57.414     137.578
  H      -11.409     -60.613     136.812
  H      -10.817     -58.973     136.697
  H      -12.254     -59.319     137.629

 6  7  8  9  10  11  12  13  14  15  16  26  30  31  32  33  35 0
 6-311+G(2d,p)
 ****
 37  38 0
 6-311+G(2d,p)
 ****
 1  2  3  4  5  17  18  19  20  21  22  23  24  25 0
 3-21G
 ****
 27  28  29  34  36  39  40  41  42  43  44  45  46 0
 3-21G
 ****


