%nproc=1
%NoSave
%Mem=1900MB
#P OB98/GEN NMR

erre ene a

0 1
  C     -452.007      22.868    -623.787
  O     -452.466      22.858    -622.460
  P     -454.048      22.786    -622.142
  C     -453.818      20.477    -621.010
  O     -454.430      21.224    -622.071
  C     -454.888      20.077    -619.984
  O     -455.896      19.225    -620.581
  C     -454.348      19.261    -618.820
  O     -453.456      19.908    -617.940
  C     -455.633      18.717    -618.224
  O     -456.279      19.675    -617.380
  C     -456.479      18.451    -619.498
  N     -456.555      17.039    -619.835
  C     -457.745      16.390    -619.476
  O     -458.680      16.953    -618.927
  N     -457.804      15.051    -619.759
  C     -456.790      14.300    -620.298
  O     -456.901      13.088    -620.489
  C     -455.564      15.016    -620.637
  C     -455.495      16.336    -620.394
  O     -454.910      23.593    -623.057
  O     -454.130      23.220    -620.604
  H     -457.054      19.247    -616.992
  H     -453.635      22.653    -619.991
  H     -458.642      14.563    -619.494
  H     -454.753      14.465    -621.082
  H     -454.599      16.896    -620.628
  H     -457.504      18.828    -619.362
  H     -455.454      17.820    -617.606
  H     -453.790      18.408    -619.235
  H     -455.400      20.991    -619.639
  H     -453.062      21.097    -620.522
  H     -453.319      19.589    -621.423
  P     -452.512      19.107    -616.903
  C     -450.223      18.973    -618.145
  O     -451.408      18.313    -617.750
  O     -453.187      18.387    -615.781
  O     -451.625      20.316    -616.282
  H     -451.384      20.092    -615.367
  H     -449.613      18.302    -618.752
  H     -449.647      19.281    -617.261
  H     -450.472      19.853    -618.753
  H     -450.938      22.918    -623.794
  H     -452.408      23.719    -624.297
  H     -452.325      21.974    -624.281

 3  4  5  6  7  8  9  10  11  12  13  23  28  29  30  31  32 0
 6-311+G(2d,p)
 ****
 33  34 0
 6-311+G(2d,p)
 ****
 1  2  14  15  16  17  18  19  20  21  22  24  25  26  27 0
 3-21G
 ****
 35  36  37  38  39  40  41  42  43  44  45 0
 3-21G
 ****


