%nproc=1
%NoSave
%Mem=1900MB
#P OB98/GEN NMR

erre ene a

0 1
  C      181.899      62.315     -27.967
  O      180.871      63.282     -27.916
  H      181.467      61.332     -27.765
  H      182.653      62.529     -27.204
  H      182.366      62.295     -28.956
  P      181.196      64.784     -28.375
  C      181.642      65.920     -30.649
  O      181.673      64.708     -29.904
  C      182.549      65.803     -31.871
  O      183.937      65.843     -31.466
  C      182.382      64.504     -32.650
  O      181.202      64.531     -33.428
  C      183.677      64.484     -33.448
  O      183.582      65.340     -34.598
  C      184.684      65.052     -32.418
  N      185.460      64.014     -31.739
  C      186.345      63.287     -32.532
  O      186.457      63.459     -33.745
  N      187.088      62.337     -31.880
  C      186.971      61.994     -30.565
  O      187.625      61.093     -30.039
  C      185.997      62.771     -29.785
  C      185.298      63.729     -30.397
  O      182.098      65.557     -27.472
  O      179.749      65.465     -28.487
  H      183.116      66.146     -34.309
  H      179.578      66.001     -27.691
  H      187.724      61.790     -32.440
  H      185.874      62.522     -28.737
  H      184.573      64.311     -29.840
  H      185.386      65.736     -32.912
  H      183.930      63.489     -33.816
  H      182.379      63.648     -31.963
  H      182.365      66.672     -32.519
  H      181.995      66.737     -30.008
  H      180.611      66.126     -30.951
  P      180.646      63.201     -34.121
  C      179.731      60.927     -33.365
  O      180.394      62.118     -32.958
  O      181.452      62.700     -35.272
  O      179.166      63.589     -34.580
  H      179.139      63.710     -35.551
  H      179.614      60.278     -32.522
  H      180.312      60.434     -34.116
  H      178.769      61.173     -33.763

 6  7  8  9  10  11  12  13  14  15  16  26  31  32  33  34  35 0
 6-311+G(2d,p)
 ****
 36  37 0
 6-311+G(2d,p)
 ****
 1  2  3  4  5  17  18  19  20  21  22  23  24  25 0
 3-21G
 ****
 27  28  29  30  38  39  40  41  42  43  44  45 0
 3-21G
 ****


