%nproc=1
%NoSave
%Mem=1900MB
#P OB98/GEN NMR

erre ene a

0 1
  C      212.509    -135.634    -123.951
  O      211.281    -134.975    -124.188
  H      212.481    -136.611    -124.439
  H      212.665    -135.784    -122.878
  H      213.338    -135.055    -124.370
  P      211.036    -133.545    -123.508
  C      211.190    -132.617    -121.096
  O      211.137    -133.775    -121.924
  C      212.090    -132.866    -119.884
  O      213.399    -133.291    -120.311
  C      212.318    -131.630    -119.016
  O      211.171    -131.351    -118.233
  C      213.551    -132.061    -118.238
  O      213.200    -132.957    -117.173
  C      214.354    -132.804    -119.334
  N      215.371    -131.975    -119.973
  C      216.646    -132.004    -119.388
  O      216.850    -132.689    -118.384
  N      217.640    -131.242    -119.950
  C      217.402    -130.550    -121.021
  N      218.435    -129.816    -121.532
  C      216.087    -130.518    -121.688
  C      215.125    -131.237    -121.112
  O      209.812    -132.803    -123.947
  O      212.373    -132.724    -123.840
  H      212.550    -132.481    -116.621
  H      212.257    -132.195    -124.650
  H      215.934    -129.935    -122.586
  H      214.126    -131.274    -121.537
  H      214.849    -133.690    -118.911
  H      214.073    -131.217    -117.787
  H      212.585    -130.768    -119.640
  H      211.650    -133.683    -119.299
  H      219.324    -129.887    -121.048
  H      210.168    -132.406    -120.768
  H      218.410    -129.378    -122.439
  H      211.557    -131.753    -121.664
  P      210.774    -129.852    -117.832
  C      211.865    -127.981    -116.440
  O      212.020    -129.281    -116.989
  O      209.446    -129.703    -117.169
  O      210.893    -129.046    -119.209
  H      210.105    -129.224    -119.782
  H      212.752    -127.712    -115.905
  H      211.029    -127.973    -115.772
  H      211.697    -127.278    -117.229

 6  7  8  9  10  11  12  13  14  15  16  26  30  31  32  33  35 0
 6-311+G(2d,p)
 ****
 37  38 0
 6-311+G(2d,p)
 ****
 1  2  3  4  5  17  18  19  20  21  22  23  24  25 0
 3-21G
 ****
 27  28  29  34  36  39  40  41  42  43  44  45  46 0
 3-21G
 ****


