%nproc=1
%NoSave
%Mem=1900MB
#P OB98/GEN NMR

erre ene a

0 1
  C     -336.260     205.686     321.589
  O     -336.627     206.941     320.973
  P     -335.424     207.908     320.518
  C     -336.797     210.112     320.860
  O     -336.138     209.235     319.967
  C     -337.851     210.933     320.107
  O     -337.272     211.534     318.922
  C     -339.032     210.131     319.631
  O     -339.919     209.790     320.688
  C     -339.625     211.070     318.588
  O     -340.420     212.088     319.232
  C     -338.352     211.716     317.972
  N     -338.012     211.166     316.667
  C     -337.309     212.013     315.825
  O     -336.991     213.161     316.135
  N     -336.966     211.487     314.603
  C     -337.289     210.255     314.128
  O     -336.964     209.832     313.039
  C     -338.094     209.419     315.050
  C     -338.406     209.908     316.260
  O     -334.906     207.143     319.212
  O     -334.400     208.107     321.575
  H     -335.624     206.724     318.700
  H     -341.180     211.627     319.653
  H     -336.431     212.087     313.983
  H     -338.391     208.444     314.711
  H     -339.007     209.300     316.951
  H     -338.485     212.794     317.873
  H     -340.265     210.560     317.866
  H     -338.685     209.208     319.132
  H     -338.186     211.741     320.782
  H     -336.078     210.787     321.329
  H     -337.244     209.520     321.666
  P     -340.495     208.291     320.708
  C     -342.717     209.074     321.872
  O     -341.559     208.235     321.899
  O     -339.241     207.478     321.292
  O     -340.984     207.804     319.382
  H     -338.807     207.932     322.043
  H     -343.463     208.653     322.545
  H     -343.122     209.132     320.870
  H     -342.440     210.067     322.225
  H     -337.145     205.141     321.843
  H     -335.692     205.876     322.476
  H     -335.671     205.112     320.905

 3  4  5  6  7  8  9  10  11  12  13  24  28  29  30  31  32 0
 6-311+G(2d,p)
 ****
 33  34 0
 6-311+G(2d,p)
 ****
 1  2  14  15  16  17  18  19  20  21  22  23  25  26  27 0
 3-21G
 ****
 35  36  37  38  39  40  41  42  43  44  45 0
 3-21G
 ****


