%nproc=1
%NoSave
%Mem=1900MB
#P OB98/GEN NMR

erre ene a

0 1
  C        9.483     145.943    -112.181
  O        9.686     146.094    -113.572
  H        8.413     146.016    -111.973
  H       10.003     146.732    -111.633
  H        9.838     144.961    -111.855
  P       11.206     146.052    -114.084
  C       11.192     148.592    -113.587
  O       11.880     147.357    -113.440
  C       11.990     149.728    -112.954
  O       12.145     149.503    -111.542
  C       13.397     149.897    -113.515
  O       13.368     150.663    -114.709
  C       14.071     150.659    -112.384
  O       13.738     152.057    -112.477
  C       13.425     150.048    -111.129
  N       17.128     148.998    -107.734
  C       16.722     150.162    -108.285
  N       15.770     150.363    -109.222
  C       15.203     149.198    -109.580
  C       15.516     147.933    -109.106
  C       16.527     147.854    -108.133
  N       16.939     146.665    -107.573
  N       14.730     146.973    -109.708
  C       13.916     147.654    -110.488
  N       14.187     149.000    -110.475
  O       11.389     145.873    -115.554
  O       11.801     144.874    -113.177
  H       13.948     152.336    -113.389
  H       11.460     144.937    -112.268
  H       17.233     151.052    -107.931
  H       13.103     147.226    -111.066
  H       13.225     150.809    -110.365
  H       15.159     150.587    -112.420
  H       13.899     148.932    -113.649
  H       11.411     150.655    -113.073
  H       10.202     148.532    -113.119
  H       17.791     146.681    -107.035
  H       16.580     145.808    -107.967
  H       11.056     148.773    -114.658
  P       14.273     150.264    -115.971
  C       16.190     151.779    -115.168
  O       15.785     150.450    -115.470
  O       13.918     150.966    -117.234
  O       14.123     148.676    -116.079
  H       14.417     148.373    -116.960
  H       17.211     151.777    -114.847
  H       15.571     152.172    -114.388
  H       16.093     152.389    -116.042

 6  7  8  9  10  11  12  13  14  15  25  28  32  33  34  35 0
 6-311+G(2d,p)
 ****
 36  39  40 0
 6-311+G(2d,p)
 ****
 1  2  3  4  5  16  17  18  19  20  21  22  23  24 0
 3-21G
 ****
 26  27  29  30  31  37  38  41  42  43  44  45  46  47 0
 3-21G
 ****
 48 0
 3-21G
 ****


