%nproc=1
%NoSave
%Mem=1900MB
#P OB98/GEN NMR

erre ene a

0 1
  C      208.627    -247.599     108.655
  O      209.541    -247.152     109.629
  P      209.214    -247.076     111.185
  C      209.805    -249.455     112.096
  O      208.794    -248.541     111.690
  C      209.652    -249.821     113.579
  O      209.543    -248.594     114.345
  C      208.364    -250.626     113.833
  O      208.528    -251.704     114.745
  C      207.358    -249.544     114.203
  O      206.231    -250.037     114.910
  C      208.234    -248.547     114.955
  N      204.364    -245.383     115.872
  C      204.523    -246.698     116.263
  N      203.432    -247.293     116.797
  N      205.632    -247.373     116.098
  C      206.593    -246.680     115.444
  C      206.553    -245.374     115.014
  C      205.334    -244.632     115.233
  O      205.110    -243.502     114.809
  N      207.688    -245.028     114.331
  C      208.405    -246.133     114.309
  N      207.763    -247.176     114.947
  O      208.393    -245.914     111.643
  O      210.693    -246.912     111.819
  H      206.562    -250.588     115.646
  H      210.601    -246.345     112.610
  H      203.456    -244.941     115.957
  H      209.365    -246.248     113.830
  H      208.343    -248.821     116.006
  H      206.983    -249.109     113.269
  H      202.530    -246.849     116.803
  H      208.034    -251.118     112.915
  H      203.444    -248.311     116.855
  H      210.550    -250.348     113.916
  H      210.762    -248.947     111.927
  H      209.786    -250.351     111.470
  P      207.791    -253.120     114.759
  C      209.492    -253.896     112.999
  O      208.134    -253.885     113.392
  O      206.238    -252.782     114.595
  O      208.017    -253.929     115.994
  H      205.710    -253.377     115.165
  H      209.548    -254.194     111.949
  H      210.044    -254.613     113.606
  H      209.934    -252.897     113.114
  H      209.085    -247.555     107.689
  H      207.759    -246.974     108.667
  H      208.343    -248.608     108.869

 3  4  5  6  7  8  9  10  11  12  23  26  30  31 0
 6-311+G(2d,p)
 ****
 33  35  36  37  38 0
 6-311+G(2d,p)
 ****
 1  2  13  14  15  16  17  18  19  20  21  22  24  25 0
 3-21G
 ****
 27  28  29  32  34  39  40  41  42  43  44  45  46  47  48  49 0
 3-21G
 ****


