%nproc=1
%NoSave
%Mem=1900MB
#P OB98/GEN NMR

erre ene a

0 1
  C     -169.842    -379.076     399.269
  O     -171.067    -379.222     398.576
  H     -169.044    -379.512     398.664
  H     -169.873    -379.594     400.230
  H     -169.624    -378.016     399.428
  P     -172.427    -378.893     399.367
  C     -172.025    -376.385     398.891
  O     -172.269    -377.379     399.886
  C     -172.297    -374.984     399.445
  O     -173.687    -374.849     399.800
  C     -171.526    -374.664     400.716
  O     -170.135    -374.523     400.529
  C     -172.330    -373.513     401.305
  O     -171.951    -372.241     400.791
  C     -173.768    -373.858     400.844
  N     -174.603    -374.302     401.951
  C     -175.091    -373.297     402.783
  O     -174.828    -372.100     402.635
  N     -175.864    -373.715     403.835
  C     -176.147    -375.013     404.149
  O     -176.812    -375.322     405.134
  C     -175.583    -376.033     403.250
  C     -174.851    -375.637     402.206
  O     -172.803    -379.868     400.443
  O     -173.519    -378.764     398.207
  H     -171.218    -371.915     401.345
  H     -174.436    -378.828     398.572
  H     -176.231    -373.002     404.443
  H     -175.784    -377.070     403.473
  H     -174.423    -376.369     401.527
  H     -174.241    -372.975     400.398
  H     -172.221    -373.468     402.388
  H     -171.651    -375.508     401.407
  H     -172.074    -374.254     398.653
  H     -172.701    -376.579     398.052
  H     -170.993    -376.464     398.533
  P     -169.095    -374.392     401.734
  C     -168.991    -376.954     402.158
  O     -169.283    -375.668     402.699
  O     -168.953    -373.040     402.359
  O     -167.703    -374.730     400.994
  H     -167.006    -374.187     401.420
  H     -169.159    -377.702     402.905
  H     -167.968    -376.986     401.845
  H     -169.627    -377.140     401.318

 6  7  8  9  10  11  12  13  14  15  16  26  31  32  33  34  35 0
 6-311+G(2d,p)
 ****
 36  37 0
 6-311+G(2d,p)
 ****
 1  2  3  4  5  17  18  19  20  21  22  23  24  25 0
 3-21G
 ****
 27  28  29  30  38  39  40  41  42  43  44  45 0
 3-21G
 ****


