%nproc=1
%NoSave
%Mem=1900MB
#P OB98/GEN NMR

erre ene a

0 1
  C       70.780      34.186    -138.541
  O       72.074      34.673    -138.858
  P       72.506      36.165    -138.461
  C       73.097      37.178    -140.748
  O       73.603      36.625    -139.539
  C       74.116      37.028    -141.876
  O       75.364      37.633    -141.460
  C       74.409      35.578    -142.240
  O       74.624      35.490    -143.651
  C       75.721      35.271    -141.539
  O       76.437      34.221    -142.210
  C       76.404      36.642    -141.565
  N       80.628      34.873    -139.247
  C       79.979      34.469    -140.360
  N       78.848      34.968    -140.904
  C       78.419      36.031    -140.206
  C       78.978      36.562    -139.053
  C       80.137      35.934    -138.567
  N       80.804      36.357    -137.437
  N       78.237      37.637    -138.602
  C       77.264      37.762    -139.477
  N       77.336      36.822    -140.470
  O       72.918      36.345    -137.041
  O       71.237      37.062    -138.830
  H       77.299      34.125    -141.755
  H       71.113      37.764    -138.163
  H       80.426      33.628    -140.883
  H       76.480      38.503    -139.432
  H       76.938      36.808    -142.508
  H       75.520      34.940    -140.514
  H       73.608      34.893    -141.941
  H       73.756      37.585    -142.749
  H       72.896      38.240    -140.584
  H       81.691      35.924    -137.235
  H       80.541      37.245    -137.033
  H       72.156      36.683    -141.009
  P       73.353      35.031    -144.529
  C       74.825      33.476    -146.008
  O       73.970      34.594    -145.941
  O       72.279      36.069    -144.545
  O       72.951      33.662    -143.802
  H       73.720      33.261    -143.340
  H       75.172      33.362    -147.039
  H       74.286      32.569    -145.722
  H       75.692      33.616    -145.356
  H       70.684      33.177    -138.885
  H       70.042      34.797    -139.018
  H       70.637      34.216    -137.481

 3  4  5  6  7  8  9  10  11  12  22  25  29  30  31  32 0
 6-311+G(2d,p)
 ****
 33  36  37 0
 6-311+G(2d,p)
 ****
 1  2  13  14  15  16  17  18  19  20  21  23  24  26 0
 3-21G
 ****
 27  28  34  35  38  39  40  41  42  43  44  45  46  47  48 0
 3-21G
 ****


