%nproc=1
%NoSave
%Mem=1900MB
#P OB98/GEN NMR

erre ene a

0 1
  C      336.413    -531.593      88.012
  O      335.016    -531.850      88.016
  H      336.637    -530.887      87.206
  H      336.980    -532.509      87.832
  H      336.720    -531.149      88.962
  P      334.461    -532.979      89.014
  C      334.313    -535.563      88.942
  O      334.719    -534.373      88.270
  C      333.407    -536.394      88.040
  O      334.061    -536.656      86.779
  C      333.070    -537.756      88.621
  O      332.099    -537.648      89.642
  C      332.628    -538.500      87.376
  O      331.278    -538.174      87.024
  C      333.620    -537.955      86.318
  N      334.758    -538.839      86.103
  C      334.743    -539.574      84.903
  O      333.809    -539.447      84.106
  N      335.777    -540.444      84.658
  C      336.745    -540.562      85.513
  N      337.733    -541.450      85.220
  C      336.802    -539.801      86.781
  C      335.785    -538.973      87.007
  O      333.062    -532.801      89.524
  O      335.538    -532.999      90.198
  H      330.723    -538.508      87.755
  H      335.287    -532.366      90.894
  H      337.625    -539.929      87.460
  H      335.757    -538.372      87.912
  H      333.113    -537.795      85.356
  H      332.679    -539.581      87.512
  H      333.978    -538.242      88.998
  H      332.496    -535.813      87.833
  H      337.649    -541.956      84.339
  H      333.770    -535.253      89.843
  H      338.580    -541.560      85.756
  H      335.187    -536.148      89.243
  P      331.553    -538.956      90.398
  C      330.274    -541.080      89.687
  O      330.835    -539.833      89.263
  O      330.743    -538.699      91.623
  O      332.899    -539.784      90.698
  H      333.420    -539.381      91.429
  H      329.826    -541.573      88.850
  H      329.530    -540.901      90.435
  H      331.047    -541.699      90.093

 6  7  8  9  10  11  12  13  14  15  16  26  30  31  32  33  35 0
 6-311+G(2d,p)
 ****
 37  38 0
 6-311+G(2d,p)
 ****
 1  2  3  4  5  17  18  19  20  21  22  23  24  25 0
 3-21G
 ****
 27  28  29  34  36  39  40  41  42  43  44  45  46 0
 3-21G
 ****


