%nproc=1
%NoSave
%Mem=1900MB
#P OB98/GEN NMR

erre ene a

0 1
  C      -98.630      -5.097     142.920
  O      -98.698      -4.313     144.116
  P      -97.812      -2.990     144.316
  C      -99.281      -1.986     146.176
  O      -97.970      -2.420     145.817
  C      -99.423      -1.677     147.671
  O      -99.536      -2.903     148.448
  C      -98.265      -0.873     148.283
  O      -98.839      -0.084     149.325
  C      -97.390      -1.972     148.866
  O      -96.470      -1.501     149.847
  C      -98.449      -2.926     149.396
  N      -95.904      -6.079     152.535
  C      -96.413      -4.846     152.725
  N      -97.110      -4.083     151.856
  C      -97.310      -4.732     150.697
  C      -96.864      -6.004     150.364
  C      -96.117      -6.685     151.340
  N      -95.557      -7.927     151.137
  N      -97.230      -6.326     149.067
  C      -97.881      -5.268     148.628
  N      -97.960      -4.276     149.580
  O      -98.009      -1.954     143.249
  O      -96.295      -3.519     144.284
  H      -95.983      -2.270     150.197
  H      -95.764      -2.934     143.708
  H      -96.228      -4.406     153.703
  H      -98.294      -5.147     147.632
  H      -98.842      -2.577     150.364
  H      -96.803      -2.431     148.055
  H      -97.743      -0.245     147.555
  H     -100.373      -1.138     147.804
  H      -99.995      -2.770     145.895
  H      -94.959      -8.300     151.873
  H      -95.593      -8.340     150.215
  H      -99.529      -1.091     145.586
  P      -98.472       1.474     149.509
  C     -100.812       2.063     150.374
  O      -99.424       2.035     150.670
  O      -98.485       2.275     148.243
  O      -97.023       1.470     150.189
  H      -96.599       2.338     150.057
  H     -101.029       2.901     149.709
  H     -101.367       2.187     151.306
  H     -101.134       1.128     149.897
  H      -99.299      -5.928     143.000
  H      -97.631      -5.456     142.785
  H      -98.909      -4.493     142.082

 3  4  5  6  7  8  9  10  11  12  22  25  29  30  31  32 0
 6-311+G(2d,p)
 ****
 33  36  37 0
 6-311+G(2d,p)
 ****
 1  2  13  14  15  16  17  18  19  20  21  23  24  26 0
 3-21G
 ****
 27  28  34  35  38  39  40  41  42  43  44  45  46  47  48 0
 3-21G
 ****


