%nproc=1
%NoSave
%Mem=1900MB
#P OB98/GEN NMR

erre ene a

0 1
  C      261.666     809.210     412.358
  O      260.665     809.795     411.501
  P      259.149     809.305     411.639
  C      258.807     807.630     409.671
  O      258.978     807.812     411.072
  C      258.231     806.235     409.357
  O      257.013     806.010     410.135
  C      257.863     806.019     407.882
  O      258.080     804.630     407.584
  C      256.367     806.317     407.864
  O      255.696     805.767     406.748
  C      255.949     805.698     409.207
  N      254.653     806.164     409.710
  C      253.520     805.785     409.015
  O      253.518     805.140     407.970
  N      252.324     806.210     409.556
  C      252.171     806.992     410.667
  O      251.082     807.368     411.077
  C      253.413     807.389     411.342
  C      254.577     806.960     410.834
  O      258.409     810.188     410.521
  O      258.514     809.539     412.978
  H      256.035     806.222     405.948
  H      257.590     810.561     410.879
  H      251.488     805.930     409.079
  H      253.341     808.002     412.232
  H      255.511     807.223     411.334
  H      255.927     804.608     409.123
  H      256.219     807.398     407.859
  H      258.436     806.658     407.192
  H      258.958     805.489     409.696
  H      259.774     807.734     409.173
  H      258.143     808.405     409.282
  P      259.110     804.256     406.406
  C      257.831     803.464     404.257
  O      258.352     804.539     405.018
  O      259.101     802.656     406.508
  O      260.478     804.851     406.554
  H      258.201     802.289     406.602
  H      257.369     802.719     404.896
  H      258.644     803.013     403.682
  H      257.088     803.862     403.560
  H      262.620     809.644     412.140
  H      261.707     808.154     412.189
  H      261.414     809.398     413.381

 3  4  5  6  7  8  9  10  11  12  13  23  28  29  30  31  32 0
 6-311+G(2d,p)
 ****
 33  34 0
 6-311+G(2d,p)
 ****
 1  2  14  15  16  17  18  19  20  21  22  24  25  26 0
 3-21G
 ****
 27  35  36  37  38  39  40  41  42  43  44  45 0
 3-21G
 ****


