%nproc=1
%NoSave
%Mem=1900MB
#P OB98/GEN NMR

erre ene a

0 1
  C     -313.520    -526.713     603.611
  O     -313.240    -525.546     602.828
  P     -311.822    -524.826     603.025
  C     -310.753    -524.966     600.655
  O     -310.776    -525.461     601.986
  C     -311.368    -525.985     599.692
  O     -312.766    -526.212     599.970
  C     -311.314    -525.560     598.234
  O     -310.044    -525.838     597.657
  C     -312.376    -526.460     597.624
  O     -311.834    -527.779     597.407
  C     -313.441    -526.499     598.726
  N     -317.371    -525.118     595.745
  C     -316.463    -526.114     595.639
  N     -315.435    -526.408     596.462
  C     -315.399    -525.555     597.496
  C     -316.255    -524.492     597.741
  C     -317.282    -524.282     596.806
  N     -318.202    -523.268     596.924
  N     -315.898    -523.832     598.898
  C     -314.856    -524.497     599.355
  N     -314.511    -525.540     598.538
  O     -311.324    -525.395     604.438
  O     -311.893    -523.336     603.029
  H     -311.144    -527.692     596.721
  H     -310.816    -524.708     604.910
  H     -316.577    -526.766     594.777
  H     -314.325    -524.262     600.267
  H     -313.905    -527.489     598.823
  H     -312.728    -526.097     596.653
  H     -311.599    -524.507     598.120
  H     -310.833    -526.937     599.821
  H     -309.727    -524.737     600.356
  H     -318.930    -523.196     596.232
  H     -318.154    -522.654     597.723
  H     -311.301    -524.018     600.622
  P     -308.937    -524.681     597.737
  C     -307.225    -525.938     599.234
  O     -308.181    -524.899     599.133
  O     -309.809    -523.361     597.969
  O     -308.067    -524.573     596.527
  H     -309.360    -522.587     597.576
  H     -306.607    -525.757     600.118
  H     -306.579    -525.968     598.353
  H     -307.735    -526.898     599.351
  H     -314.497    -527.078     603.370
  H     -313.479    -526.463     604.651
  H     -312.794    -527.469     603.397

 3  4  5  6  7  8  9  10  11  12  22  25  29  30  31  32 0
 6-311+G(2d,p)
 ****
 33  36  37 0
 6-311+G(2d,p)
 ****
 1  2  13  14  15  16  17  18  19  20  21  23  24  26 0
 3-21G
 ****
 27  28  34  35  38  39  40  41  42  43  44  45  46  47  48 0
 3-21G
 ****


