%nproc=1
%NoSave
%Mem=1900MB
#P OB98/GEN NMR

erre ene a

0 1
  C      362.571    -305.158     971.195
  O      363.675    -304.270     971.085
  P      364.403    -303.811     972.444
  C      365.893    -305.898     972.879
  O      365.829    -304.543     972.458
  C      367.150    -306.569     972.325
  O      367.149    -306.542     970.885
  C      368.448    -305.888     972.738
  O      368.865    -306.256     974.045
  C      369.411    -306.439     971.696
  O      369.834    -307.759     972.063
  C      368.531    -306.482     970.440
  N      371.309    -304.521     966.691
  C      371.272    -305.811     967.187
  N      372.148    -306.680     966.647
  N      370.459    -306.211     968.131
  C      369.645    -305.224     968.587
  C      369.577    -303.909     968.167
  C      370.494    -303.480     967.131
  O      370.609    -302.346     966.695
  N      368.619    -303.215     968.855
  C      368.100    -304.097     969.683
  N      368.717    -305.325     969.581
  O      363.579    -304.587     973.582
  O      364.424    -302.334     972.668
  H      370.509    -308.029     971.407
  H      363.756    -304.180     974.452
  H      371.960    -304.261     965.971
  H      367.295    -303.898     970.378
  H      368.723    -307.383     969.839
  H      370.316    -305.831     971.591
  H      372.851    -306.427     965.961
  H      368.381    -304.798     972.630
  H      372.200    -307.619     967.039
  H      367.147    -307.614     972.652
  H      365.005    -306.430     972.520
  H      365.893    -305.936     973.972
  P      369.544    -305.111     974.944
  C      367.552    -304.400     976.456
  O      368.756    -305.143     976.333
  O      369.033    -303.762     974.246
  O      371.030    -305.186     975.019
  H      369.668    -303.034     974.407
  H      367.019    -304.741     977.349
  H      366.906    -304.555     975.585
  H      367.786    -303.337     976.563
  H      362.189    -305.375     970.219
  H      361.804    -304.702     971.785
  H      362.889    -306.066     971.664

 3  4  5  6  7  8  9  10  11  12  23  26  30  31 0
 6-311+G(2d,p)
 ****
 33  35  36  37  38 0
 6-311+G(2d,p)
 ****
 1  2  13  14  15  16  17  18  19  20  21  22  24  25 0
 3-21G
 ****
 27  28  29  32  34  39  40  41  42  43  44  45  46  47  48  49 0
 3-21G
 ****


