%nproc=1
%NoSave
%Mem=1900MB
#P OB98/GEN NMR

erre ene a

0 1
  C     -289.518       3.178    -117.769
  O     -290.454       3.046    -116.710
  P     -290.981       4.387    -116.006
  C     -289.219       4.516    -114.117
  O     -290.578       4.277    -114.456
  C     -288.997       4.395    -112.614
  O     -287.570       4.407    -112.342
  C     -289.637       5.524    -111.791
  O     -290.268       4.964    -110.629
  C     -288.440       6.336    -111.319
  O     -288.722       7.050    -110.120
  C     -287.396       5.232    -111.172
  N     -283.422       5.655    -108.083
  C     -284.569       4.899    -107.945
  N     -284.700       4.202    -106.795
  N     -285.508       4.830    -108.851
  C     -285.234       5.557    -109.965
  C     -284.127       6.334    -110.221
  C     -283.126       6.448    -109.187
  O     -282.129       7.172    -109.209
  N     -284.200       6.901    -111.469
  C     -285.343       6.473    -111.964
  N     -286.029       5.688    -111.071
  O     -292.569       4.189    -116.002
  O     -290.596       5.657    -116.688
  H     -289.572       7.517    -110.257
  H     -292.996       4.945    -116.451
  H     -282.740       5.683    -107.344
  H     -285.725       6.721    -112.950
  H     -287.609       4.616    -110.285
  H     -288.165       7.054    -112.097
  H     -283.997       4.175    -106.072
  H     -290.358       6.136    -112.345
  H     -285.521       3.623    -106.685
  H     -289.377       3.415    -112.286
  H     -288.936       5.524    -114.443
  H     -288.588       3.790    -114.650
  P     -291.870       5.097    -110.571
  C     -291.460       7.578    -109.905
  O     -292.168       6.381    -109.661
  O     -292.306       3.864    -109.648
  O     -292.528       5.072    -111.910
  H     -293.228       3.604    -109.840
  H     -290.875       7.534    -110.830
  H     -290.782       7.770    -109.066
  H     -292.172       8.405    -109.978
  H     -289.259       2.208    -118.139
  H     -288.638       3.669    -117.408
  H     -289.951       3.757    -118.558

 3  4  5  6  7  8  9  10  11  12  23  26  30  31  33  0
 6-311+G(2d,p)
 ****
 35  36  37  38 0
 6-311+G(2d,p)
 ****
 1  2  13  14  15  16  17  18  19  20  21  22  24  25  27  28  29 0
 3-21G
 ****
 32  34  39  40  41  42  43  44  45  46  47  48  49 0
 3-21G
 ****


