%nproc=1
%NoSave
%Mem=1900MB
#P OB98/GEN NMR

erre ene a

0 1
  C     -141.349    -143.169    -281.469
  O     -141.061    -144.409    -280.857
  H     -142.091    -143.331    -282.255
  H     -140.445    -142.756    -281.923
  H     -141.759    -142.462    -280.743
  P     -140.137    -144.428    -279.549
  C     -141.822    -144.995    -277.677
  O     -141.066    -143.982    -278.321
  C     -143.008    -144.389    -276.918
  O     -142.507    -143.762    -275.698
  C     -143.773    -143.305    -277.702
  O     -145.136    -143.349    -277.257
  C     -143.071    -142.050    -277.212
  O     -143.752    -140.875    -277.569
  C     -142.962    -142.392    -275.720
  N     -142.066    -141.540    -274.948
  C     -142.636    -140.522    -274.189
  O     -143.842    -140.293    -274.120
  N     -141.756    -139.741    -273.487
  C     -140.400    -139.884    -273.459
  O     -139.665    -139.173    -272.785
  C     -139.856    -140.970    -274.286
  C     -140.700    -141.740    -274.977
  O     -138.841    -143.698    -279.658
  O     -139.910    -145.990    -279.271
  H     -139.023    -146.252    -279.582
  H     -143.767    -140.798    -278.548
  H     -142.151    -139.002    -272.928
  H     -138.784    -141.105    -274.295
  H     -140.329    -142.556    -275.588
  H     -143.955    -142.377    -275.260
  H     -142.083    -141.974    -277.670
  H     -143.736    -143.451    -278.784
  H     -143.680    -145.198    -276.606
  H     -141.164    -145.519    -276.975
  H     -142.181    -145.708    -278.427
  P     -146.392    -143.307    -278.256
  C     -147.650    -145.267    -277.126
  O     -147.034    -144.778    -278.312
  O     -146.079    -142.737    -279.600
  O     -147.502    -142.432    -277.503
  H     -148.091    -142.019    -278.160
  H     -148.033    -146.250    -277.302
  H     -148.452    -144.617    -276.847
  H     -146.928    -145.301    -276.337

 6  7  8  9  10  11  12  13  14  15  16  27  31  32  33  34  35 0
 6-311+G(2d,p)
 ****
 36  37 0
 6-311+G(2d,p)
 ****
 1  2  3  4  5  17  18  19  20  21  22  23  24  25 0
 3-21G
 ****
 26  28  29  30  38  39  40  41  42  43  44  45 0
 3-21G
 ****


