%nproc=1
%NoSave
%Mem=1900MB
#P OB98/GEN NMR

erre ene a

0 1
  C      217.737     102.011     350.146
  O      217.146     102.335     351.405
  P      216.410     103.752     351.564
  C      213.984     103.009     352.078
  O      215.186     103.577     352.593
  C      213.242     102.217     353.169
  O      214.023     101.047     353.516
  C      213.035     102.983     354.482
  O      211.857     103.775     354.627
  C      212.906     101.832     355.477
  O      211.557     101.332     355.475
  C      213.846     100.767     354.928
  N      216.221     100.869     359.463
  C      214.913     100.892     359.126
  N      214.364     100.857     357.893
  C      215.314     100.788     356.944
  C      216.691     100.752     357.138
  C      217.140     100.800     358.466
  N      218.472     100.790     358.816
  N      217.349     100.688     355.925
  C      216.387     100.698     355.019
  N      215.140     100.740     355.587
  O      216.083     104.463     350.292
  O      217.464     104.596     352.437
  H      211.003     102.022     355.888
  H      217.460     105.520     352.120
  H      214.215     100.938     359.957
  H      216.550     100.675     353.955
  H      213.434      99.754     355.005
  H      213.121     102.145     356.508
  H      213.919     103.591     354.729
  H      212.277     101.882     352.777
  H      214.233     102.334     351.245
  H      218.713     100.871     359.783
  H      219.178     100.799     358.084
  H      213.390     103.817     351.661
  P      211.883     105.178     355.411
  C      210.451     106.536     353.689
  O      210.547     105.942     354.970
  O      213.133     105.971     355.241
  O      211.569     104.737     356.913
  H      210.670     104.410     357.060
  H      209.407     106.807     353.512
  H      210.771     105.841     352.908
  H      211.059     107.445     353.658
  H      218.184     101.041     350.201
  H      218.487     102.736     349.907
  H      216.983     102.014     349.387

 3  4  5  6  7  8  9  10  11  12  22  25  29  30  31  32 0
 6-311+G(2d,p)
 ****
 33  36  37 0
 6-311+G(2d,p)
 ****
 1  2  13  14  15  16  17  18  19  20  21  23  24  26 0
 3-21G
 ****
 27  28  34  35  38  39  40  41  42  43  44  45  46  47  48 0
 3-21G
 ****


