%nproc=1
%NoSave
%Mem=1900MB
#P OB98/GEN NMR

erre ene a

0 1
  C     -204.509    -204.237    -560.454
  O     -205.718    -204.733    -559.883
  P     -207.092    -204.488    -560.673
  C     -208.292    -204.402    -558.389
  O     -208.315    -204.911    -559.714
  C     -208.868    -205.433    -557.402
  O     -207.773    -206.269    -556.922
  C     -209.512    -204.839    -556.143
  O     -210.906    -204.520    -556.189
  C     -209.369    -205.993    -555.160
  O     -210.437    -206.940    -555.349
  C     -208.043    -206.638    -555.555
  N     -205.653    -207.467    -551.092
  C     -206.732    -208.047    -551.667
  N     -207.306    -207.769    -552.856
  C     -206.642    -206.782    -553.488
  C     -205.524    -206.102    -553.032
  C     -205.026    -206.471    -551.773
  N     -203.929    -205.875    -551.190
  N     -205.127    -205.151    -553.956
  C     -206.006    -205.246    -554.932
  N     -206.928    -206.230    -554.704
  O     -207.151    -205.026    -562.063
  O     -207.207    -202.887    -560.676
  H     -210.330    -207.294    -556.253
  H     -207.586    -202.599    -561.532
  H     -207.202    -208.837    -551.085
  H     -206.006    -204.631    -555.819
  H     -208.078    -207.737    -555.517
  H     -209.425    -205.664    -554.114
  H     -208.949    -203.968    -555.786
  H     -209.581    -206.077    -557.924
  H     -208.887    -203.482    -558.339
  H     -203.663    -206.171    -550.265
  H     -203.483    -205.096    -551.655
  H     -207.265    -204.122    -558.157
  P     -211.465    -203.147    -555.584
  C     -212.793    -204.446    -553.741
  O     -212.819    -203.536    -554.811
  O     -211.601    -202.032    -556.555
  O     -210.444    -202.858    -554.376
  H     -210.507    -203.488    -553.643
  H     -213.759    -204.410    -553.225
  H     -212.005    -204.183    -553.023
  H     -212.634    -205.459    -554.116
  H     -203.687    -204.478    -559.813
  H     -204.576    -203.175    -560.564
  H     -204.357    -204.686    -561.413

 3  4  5  6  7  8  9  10  11  12  22  25  29  30  31  32 0
 6-311+G(2d,p)
 ****
 33  36  37 0
 6-311+G(2d,p)
 ****
 1  2  13  14  15  16  17  18  19  20  21  23  24  26 0
 3-21G
 ****
 27  28  34  35  38  39  40  41  42  43  44  45  46  47  48 0
 3-21G
 ****


