%nproc=1
%NoSave
%Mem=1900MB
#P OB98/GEN NMR

erre ene a

0 1
  C      205.629     814.545      27.979
  O      205.784     814.706      29.374
  H      206.568     814.175      27.560
  H      205.391     815.506      27.518
  H      204.834     813.824      27.767
  P      204.515     815.250      30.186
  C      204.309     812.981      31.431
  O      203.662     813.954      30.616
  C      203.871     811.569      31.022
  O      202.421     811.467      31.151
  C      204.235     811.205      29.576
  O      204.616     809.827      29.533
  C      202.923     811.378      28.838
  O      202.876     810.614      27.637
  C      201.930     810.930      29.912
  N      197.321     809.387      28.610
  C      198.470     808.663      28.866
  N      198.389     807.317      28.750
  N      199.604     809.209      29.197
  C      199.546     810.557      29.298
  C      198.481     811.390      29.064
  C      197.226     810.772      28.672
  O      196.180     811.359      28.413
  N      198.823     812.709      29.242
  C      200.102     812.670      29.579
  N      200.587     811.388      29.630
  O      203.606     815.923      29.053
  O      204.818     816.199      31.304
  H      201.952     810.632      27.306
  H      203.085     816.667      29.421
  H      196.472     808.916      28.346
  H      200.723     813.534      29.794
  H      201.882     809.838      30.005
  H      202.766     812.434      28.580
  H      197.534     806.826      28.533
  H      205.033     811.821      29.158
  H      199.213     806.767      28.946
  H      204.298     810.855      31.728
  H      204.033     813.160      32.477
  H      205.392     813.081      31.324
  P      205.371     809.301      28.214
  C      207.423     808.474      29.580
  O      206.954     809.279      28.504
  O      205.196     810.527      27.200
  O      204.801     808.043      27.652
  H      204.563     810.280      26.500
  H      208.487     808.559      29.651
  H      207.158     807.453      29.403
  H      206.977     808.805      30.494

 6  7  8  9  10  11  12  13  14  15  26  29  33  34 0
 6-311+G(2d,p)
 ****
 36  38  39  40  41 0
 6-311+G(2d,p)
 ****
 1  2  3  4  5  16  17  18  19  20  21  22  23  24  25 0
 3-21G
 ****
 27  28  30  31  32  35  37  42  43  44  45  46  47 0
 3-21G
 ****
 48  49 0
 3-21G
 ****


