%nproc=1
%NoSave
%Mem=1900MB
#P OB98/GEN NMR

erre ene a

0 1
  C      383.481      27.946       3.866
  O      383.414      26.899       2.894
  P      381.966      26.584       2.275
  C      381.125      24.758       3.911
  O      380.997      26.097       3.457
  C      380.956      24.650       5.432
  O      380.689      23.279       5.828
  C      382.184      25.117       6.217
  O      381.714      25.713       7.430
  C      382.890      23.820       6.552
  O      383.775      23.982       7.658
  C      381.687      22.896       6.800
  N      382.021      21.476       6.700
  C      382.548      20.866       7.842
  O      382.780      21.536       8.852
  N      382.839      19.526       7.803
  C      382.672      18.864       6.703
  N      382.984      17.539       6.726
  C      382.172      19.478       5.457
  C      381.866      20.772       5.532
  O      382.214      25.256       1.413
  O      381.426      27.689       1.426
  H      384.272      23.141       7.776
  H      381.850      25.366       0.517
  H      382.066      18.891       4.556
  H      381.493      21.310       4.672
  H      381.263      23.074       7.799
  H      383.471      23.470       5.689
  H      382.804      25.834       5.670
  H      380.085      25.249       5.718
  H      383.314      17.153       7.602
  H      382.106      24.365       3.632
  H      382.892      16.928       5.929
  H      380.390      24.134       3.389
  P      382.021      27.264       7.685
  C      383.651      26.858       9.627
  O      383.506      27.296       8.291
  O      381.140      27.556       8.995
  O      381.713      28.238       6.597
  H      381.184      28.503       9.217
  H      384.716      26.813       9.866
  H      383.220      25.860       9.750
  H      383.170      27.563      10.308
  H      384.491      28.059       4.200
  H      382.855      27.700       4.699
  H      383.146      28.862       3.427

 3  4  5  6  7  8  9  10  11  12  13  21  23  27  28  29  30  32 0
 6-311+G(2d,p)
 ****
 34  35 0
 6-311+G(2d,p)
 ****
 1  2  14  15  16  17  18  19  20  22  24  25  26 0
 3-21G
 ****
 31  33  36  37  38  39  40  41  42  43  44  45  46 0
 3-21G
 ****


