%nproc=1
%NoSave
%Mem=1900MB
#P OB98/GEN NMR

erre ene a

0 1
  C     -433.659     805.947    -100.171
  O     -433.668     807.095    -100.988
  H     -432.640     805.555    -100.077
  H     -434.008     806.224     -99.166
  H     -434.320     805.182    -100.578
  P     -433.142     806.916    -102.494
  C     -430.638     806.784    -101.817
  O     -431.746     806.117    -102.419
  C     -429.397     805.921    -101.921
  O     -429.010     805.852    -103.336
  C     -428.161     806.452    -101.132
  O     -427.720     805.457    -100.208
  C     -427.083     806.654    -102.180
  O     -425.791     806.234    -101.744
  C     -427.563     805.805    -103.365
  N     -423.617     805.680    -106.568
  C     -424.021     804.818    -105.615
  N     -425.144     804.856    -104.868
  C     -425.903     805.909    -105.210
  C     -425.640     806.863    -106.175
  C     -424.420     806.740    -106.874
  N     -423.991     807.658    -107.806
  N     -426.651     807.814    -106.222
  C     -427.494     807.449    -105.276
  N     -427.073     806.322    -104.617
  O     -432.702     808.397    -102.909
  O     -434.142     806.346    -103.448
  H     -425.179     806.376    -102.498
  H     -433.082     808.613    -103.791
  H     -423.343     803.992    -105.421
  H     -428.398     807.980    -104.991
  H     -427.258     804.752    -103.271
  H     -427.041     807.711    -102.453
  H     -428.387     807.382    -100.608
  H     -429.631     804.898    -101.609
  H     -430.856     806.964    -100.758
  H     -423.057     807.540    -108.168
  H     -424.537     808.492    -107.956
  H     -430.502     807.758    -102.304
  P     -428.016     805.734     -98.641
  C     -425.804     806.929     -97.958
  O     -427.209     807.050     -98.232
  O     -427.223     804.563     -97.912
  O     -429.475     805.730     -98.301
  H     -427.644     804.350     -97.053
  H     -425.407     807.889     -97.700
  H     -425.302     806.557     -98.827
  H     -425.657     806.251     -97.143

 6  7  8  9  10  11  12  13  14  15  25  28  32  33  34  35 0
 6-311+G(2d,p)
 ****
 36  39  40 0
 6-311+G(2d,p)
 ****
 1  2  3  4  5  16  17  18  19  20  21  22  23  24 0
 3-21G
 ****
 26  27  29  30  31  37  38  41  42  43  44  45  46  47  48 0
 3-21G
 ****


