%nproc=1
%NoSave
%Mem=1900MB
#P OB98/GEN NMR

erre ene a

0 1
  C      329.710     735.022     181.182
  O      328.830     734.766     182.262
  P      328.568     735.954     183.304
  C      329.654     734.835     185.404
  O      329.720     735.866     184.421
  C      330.928     734.841     186.235
  O      332.082     734.596     185.408
  C      331.201     736.174     186.932
  O      330.409     736.327     188.108
  C      332.691     736.071     187.218
  O      332.939     735.331     188.433
  C      333.197     735.295     185.990
  N      333.883     736.150     185.026
  C      335.243     736.321     185.209
  O      335.872     735.789     186.139
  N      335.881     737.129     184.303
  C      335.289     737.827     183.298
  O      335.905     738.591     182.551
  C      333.832     737.633     183.167
  C      333.209     736.829     184.029
  O      327.255     735.489     184.080
  O      328.409     737.294     182.686
  H      332.392     735.751     189.125
  H      326.697     736.273     184.299
  H      336.874     737.238     184.410
  H      333.327     738.178     182.379
  H      332.132     736.687     183.960
  H      333.908     734.507     186.305
  H      333.155     737.053     187.354
  H      331.028     737.005     186.236
  H      330.866     734.018     186.977
  H      329.533     733.867     184.916
  H      328.780     735.015     186.036
  P      330.407     737.766     188.804
  C      331.507     737.036     191.057
  O      331.632     737.739     189.824
  O      329.094     737.665     189.709
  O      330.404     738.889     187.808
  H      328.945     736.759     190.019
  H      330.902     736.128     190.941
  H      331.046     737.686     191.800
  H      332.514     736.742     191.401
  H      329.790     734.147     180.572
  H      330.676     735.281     181.563
  H      329.329     735.832     180.596

 3  4  5  6  7  8  9  10  11  12  13  23  28  29  30  31  32 0
 6-311+G(2d,p)
 ****
 33  34 0
 6-311+G(2d,p)
 ****
 1  2  14  15  16  17  18  19  20  21  22  24  25  26 0
 3-21G
 ****
 27  35  36  37  38  39  40  41  42  43  44  45 0
 3-21G
 ****


