%nproc=1
%NoSave
%Mem=1900MB
#P OB98/GEN NMR

erre ene a

0 1
  C      176.239     123.482     -93.427
  O      175.509     122.407     -92.854
  P      173.904     122.483     -92.908
  C      172.118     123.851     -91.544
  O      173.473     123.461     -91.715
  C      171.765     123.891     -90.054
  O      171.818     122.559     -89.498
  C      172.709     124.731     -89.200
  O      172.462     126.117     -89.342
  C      172.424     124.170     -87.809
  O      171.224     124.750     -87.274
  C      172.199     122.670     -88.109
  N      173.373     121.842     -87.814
  C      173.404     121.256     -86.550
  O      172.517     121.411     -85.711
  N      174.515     120.501     -86.271
  C      175.596     120.325     -87.091
  O      176.585     119.673     -86.776
  C      175.517     120.993     -88.400
  C      174.425     121.709     -88.697
  O      173.526     121.015     -92.392
  O      173.377     122.833     -94.259
  H      174.215     120.651     -91.809
  H      171.477     125.616     -86.899
  H      174.553     120.044     -85.370
  H      176.356     120.887     -89.074
  H      174.351     122.216     -89.652
  H      171.349     122.291     -87.530
  H      173.235     124.371     -87.096
  H      173.748     124.512     -89.476
  H      170.730     124.256     -89.954
  H      171.470     123.134     -92.056
  H      171.967     124.839     -92.000
  P      173.672     127.111     -88.954
  C      174.865     127.689     -86.699
  O      173.764     127.093     -87.356
  O      173.026     128.537     -89.297
  O      174.946     126.813     -89.677
  H      172.097     128.614     -89.012
  H      174.586     127.893     -85.664
  H      175.152     128.628     -87.181
  H      175.714     126.998     -86.706
  H      177.288     123.298     -93.320
  H      175.983     124.393     -92.927
  H      175.996     123.565     -94.466

 3  4  5  6  7  8  9  10  11  12  13  24  28  29  30  31  32 0
 6-311+G(2d,p)
 ****
 33  34 0
 6-311+G(2d,p)
 ****
 1  2  14  15  16  17  18  19  20  21  22  23  25  26  27 0
 3-21G
 ****
 35  36  37  38  39  40  41  42  43  44  45 0
 3-21G
 ****


