%nproc=1
%NoSave
%Mem=1900MB
#P OB98/GEN NMR

erre ene a

0 1
  C     -850.635    -962.698    1259.612
  O     -850.293    -963.110    1260.930
  P     -848.862    -962.967    1261.603
  C     -848.435    -965.532    1262.149
  O     -848.648    -964.195    1262.604
  C     -848.533    -966.541    1263.295
  O     -847.534    -966.251    1264.301
  C     -849.899    -966.503    1264.009
  O     -850.434    -967.777    1264.314
  C     -849.652    -965.559    1265.188
  O     -850.583    -965.677    1266.233
  C     -848.185    -965.904    1265.524
  N     -848.175    -962.587    1269.433
  C     -849.194    -963.423    1268.989
  N     -850.359    -963.368    1269.688
  N     -849.073    -964.251    1267.973
  C     -847.886    -964.128    1267.336
  C     -846.820    -963.327    1267.665
  C     -846.937    -962.488    1268.824
  O     -846.079    -961.696    1269.259
  N     -845.768    -963.502    1266.773
  C     -846.220    -964.392    1265.924
  N     -847.505    -964.812    1266.227
  O     -848.502    -961.620    1262.103
  O     -847.830    -963.341    1260.401
  H     -851.480    -965.522    1265.852
  H     -847.022    -962.813    1260.560
  H     -848.300    -962.001    1270.229
  H     -845.655    -964.785    1265.082
  H     -848.112    -966.749    1266.216
  H     -849.715    -964.519    1264.798
  H     -850.558    -962.688    1270.393
  H     -850.677    -966.059    1263.353
  H     -851.162    -963.820    1269.217
  H     -848.334    -967.552    1262.882
  H     -847.423    -965.542    1261.729
  H     -849.149    -965.762    1261.341
  P     -851.201    -968.818    1263.357
  C     -853.602    -967.963    1263.569
  O     -852.670    -969.045    1263.867
  O     -850.487    -970.251    1263.659
  O     -851.084    -968.501    1261.878
  H     -850.063    -970.574    1262.854
  H     -854.510    -968.108    1264.193
  H     -853.894    -968.047    1262.513
  H     -853.168    -966.988    1263.774
  H     -851.666    -962.916    1259.426
  H     -850.026    -963.222    1258.905
  H     -850.470    -961.645    1259.513

 3  4  5  6  7  8  9  10  11  12  23  26  30  31 0
 6-311+G(2d,p)
 ****
 33  35  36  37  38 0
 6-311+G(2d,p)
 ****
 1  2  13  14  15  16  17  18  19  20  21  22  24  25 0
 3-21G
 ****
 27  28  29  32  34  39  40  41  42  43  44  45  46  47  48  49 0
 3-21G
 ****


