%nproc=1
%NoSave
%Mem=1900MB
#P OB98/GEN NMR

erre ene a

0 1
  C       62.153     230.687      -5.240
  O       62.601     229.939      -6.354
  H       61.107     230.439      -5.048
  H       62.232     231.757      -5.451
  H       62.745     230.437      -4.354
  P       64.131     230.152      -6.787
  C       64.014     232.187      -8.414
  O       64.287     231.717      -7.102
  C       64.858     233.429      -8.722
  O       64.307     234.562      -7.988
  C       66.332     233.302      -8.301
  O       67.116     234.126      -9.179
  C       66.308     233.917      -6.910
  O       67.612     234.200      -6.459
  C       65.374     235.096      -7.172
  N       65.987     238.791      -3.693
  C       66.663     238.502      -4.826
  N       66.433     237.509      -5.707
  C       65.366     236.781      -5.339
  C       64.572     236.961      -4.215
  C       64.922     238.021      -3.364
  N       64.238     238.316      -2.207
  N       63.568     236.012      -4.174
  C       63.752     235.275      -5.250
  N       64.830     235.695      -5.978
  O       64.203     229.464      -8.230
  O       65.148     229.595      -5.849
  H       68.069     234.807      -7.077
  H       64.527     228.547      -8.144
  H       67.503     239.153      -5.051
  H       63.146     234.425      -5.543
  H       65.868     235.887      -7.747
  H       65.869     233.225      -6.185
  H       66.706     232.276      -8.333
  H       64.768     233.667      -9.790
  H       62.950     232.436      -8.479
  H       64.244     231.402      -9.139
  H       64.563     239.084      -1.643
  H       63.453     237.740      -1.941
  P       67.770     233.469     -10.492
  C       70.162     233.902      -9.524
  O       69.262     232.994     -10.138
  O       68.044     234.757     -11.408
  O       66.920     232.477     -11.215
  H       68.018     234.499     -12.348
  H       71.102     233.418      -9.363
  H       69.760     234.223      -8.585
  H       70.302     234.751     -10.161

 6  7  8  9  10  11  12  13  14  15  25  28  32  33  34  35 0
 6-311+G(2d,p)
 ****
 36  37  40 0
 6-311+G(2d,p)
 ****
 1  2  3  4  5  16  17  18  19  20  21  22  23  24 0
 3-21G
 ****
 26  27  29  30  31  38  39 41  42  43  44  45  46  47  48 0
 3-21G
 ****


