%nproc=1
%NoSave
%Mem=1900MB
#P OB98/GEN NMR

erre ene a

0 1
  C       17.758     -97.212     -54.008
  O       17.400     -96.137     -54.855
  H       16.860     -97.786     -53.768
  H       18.191     -96.832     -53.074
  H       18.473     -97.867     -54.513
  P       18.582     -95.143     -55.297
  C       18.499     -93.057     -56.831
  O       17.992     -94.360     -56.568
  C       18.520     -92.785     -58.334
  O       19.520     -93.598     -58.973
  C       17.204     -93.083     -59.047
  O       16.308     -91.993     -58.919
  C       17.684     -93.251     -60.479
  O       17.851     -91.952     -61.083
  C       19.055     -93.930     -60.306
  N       19.718     -97.844     -63.563
  C       19.607     -96.513     -63.774
  N       19.377     -95.537     -62.867
  C       19.269     -96.045     -61.630
  C       19.356     -97.384     -61.269
  C       19.597     -98.310     -62.297
  N       19.708     -99.668     -62.082
  N       19.190     -97.538     -59.904
  C       19.064     -96.307     -59.448
  N       19.065     -95.371     -60.454
  O       19.923     -95.772     -55.473
  O       18.499     -94.038     -54.138
  H       17.093     -91.405     -60.802
  H       17.570     -93.835     -53.928
  H       19.711     -96.189     -64.804
  H       18.987     -96.034     -58.399
  H       19.796     -93.536     -61.020
  H       16.974     -93.800     -61.103
  H       16.762     -94.029     -58.704
  H       18.808     -91.734     -58.481
  H       19.512     -92.955     -56.420
  H       19.686    -100.263     -62.892
  H       19.489    -100.016     -61.163
  H       17.846     -92.339     -56.321
  P       14.759     -92.143     -59.310
  C       12.637     -90.939     -58.489
  O       13.966     -91.338     -58.167
  O       14.311     -93.546     -59.539
  O       14.581     -91.210     -60.594
  H       13.751     -91.440     -61.059
  H       12.211     -90.415     -57.659
  H       12.047     -91.805     -58.705
  H       12.655     -90.297     -59.345

 6  7  8  9  10  11  12  13  14  15  25  28  32  33  34  35 0
 6-311+G(2d,p)
 ****
 36  39  40 0
 6-311+G(2d,p)
 ****
 1  2  3  4  5  16  17  18  19  20  21  22  23  24 0
 3-21G
 ****
 26  27  29  30  31  37  38  41  42  43  44  45  46  47 0
 3-21G
 ****
 48 0
 3-21G
 ****


