%nproc=1
%NoSave
%Mem=1900MB
#P OB98/GEN NMR

erre ene a

0 1
  C     -328.066    -242.307    -145.933
  O     -329.200    -243.129    -146.189
  P     -329.257    -244.589    -145.523
  C     -330.863    -243.971    -143.508
  O     -329.622    -244.461    -143.974
  C     -331.578    -245.077    -142.714
  O     -330.873    -245.342    -141.480
  C     -333.019    -244.723    -142.348
  O     -333.926    -245.058    -143.374
  C     -333.215    -245.523    -141.077
  O     -333.463    -246.910    -141.388
  C     -331.836    -245.361    -140.388
  N     -331.617    -244.163    -139.547
  C     -332.563    -243.812    -138.585
  O     -333.605    -244.432    -138.380
  N     -332.272    -242.699    -137.835
  C     -331.084    -242.019    -137.820
  O     -330.863    -241.072    -137.085
  C     -330.067    -242.525    -138.748
  C     -330.373    -243.544    -139.561
  O     -327.734    -245.063    -145.516
  O     -330.145    -245.564    -146.242
  H     -334.262    -246.939    -141.946
  H     -327.614    -245.837    -146.096
  H     -332.981    -242.389    -137.184
  H     -329.099    -242.046    -138.738
  H     -329.621    -243.920    -140.246
  H     -331.611    -246.235    -139.765
  H     -334.095    -245.181    -140.523
  H     -333.087    -243.660    -142.087
  H     -331.566    -245.999    -143.318
  H     -331.494    -243.646    -144.340
  H     -330.699    -243.096    -142.878
  P     -334.633    -243.890    -144.221
  C     -333.119    -244.043    -146.290
  O     -333.479    -243.279    -145.159
  O     -335.429    -242.904    -143.442
  O     -335.540    -244.697    -145.278
  H     -336.468    -244.773    -144.953
  H     -332.449    -243.446    -146.923
  H     -334.012    -244.308    -146.875
  H     -332.598    -244.949    -145.980
  H     -328.179    -241.374    -146.444
  H     -327.182    -242.800    -146.281
  H     -327.984    -242.130    -144.881

 3  4  5  6  7  8  9  10  11  12  13  23  28  29  30  31  32 0
 6-311+G(2d,p)
 ****
 33  34 0
 6-311+G(2d,p)
 ****
 1  2  14  15  16  17  18  19  20  21  22  24  25  26  27 0
 3-21G
 ****
 35  36  37  38  39  40  41  42  43  44  45 0
 3-21G
 ****


