%nproc=1
%NoSave
%Mem=1900MB
#P OB98/GEN NMR

erre ene a

0 1
  C      618.642     398.891     155.761
  O      618.219     397.531     155.620
  P      619.198     396.295     155.407
  C      619.526     396.361     152.797
  O      620.072     396.572     154.103
  C      620.574     396.358     151.680
  O      621.165     397.678     151.569
  C      621.720     395.394     152.022
  O      621.600     394.014     151.759
  C      622.968     396.039     151.411
  O      623.252     395.536     150.110
  C      622.589     397.534     151.351
  N      626.350     400.928     152.118
  C      625.972     400.289     150.937
  N      626.725     400.552     149.847
  N      624.959     399.456     150.864
  C      624.363     399.223     152.059
  C      624.655     399.768     153.285
  C      625.743     400.735     153.345
  O      626.106     401.334     154.363
  N      623.850     399.276     154.269
  C      623.068     398.405     153.653
  N      623.339     398.346     152.300
  O      618.578     394.942     155.531
  O      620.264     396.448     156.617
  H      623.344     394.561     150.179
  H      620.530     395.543     156.875
  H      627.118     401.572     152.115
  H      622.306     397.802     154.112
  H      622.809     397.933     150.356
  H      623.846     395.830     152.028
  H      627.566     401.086     149.865
  H      621.874     395.460     153.122
  H      626.572     399.933     149.038
  H      620.118     396.151     150.707
  H      618.795     397.167     152.650
  H      618.961     395.425     152.787
  P      620.895     392.925     152.705
  C      623.059     392.001     153.731
  O      621.836     392.679     153.973
  O      621.052     391.559     151.881
  O      619.453     393.189     153.018
  H      620.435     390.880     152.243
  H      623.448     391.620     154.685
  H      623.778     392.691     153.282
  H      622.904     391.160     153.046
  H      617.786     399.519     155.892
  H      619.174     399.192     154.883
  H      619.282     398.979     156.614

 3  4  5  6  7  8  9  10  11  12  23  26  30  31 0
 6-311+G(2d,p)
 ****
 33  35  36  37  38 0
 6-311+G(2d,p)
 ****
 1  2  13  14  15  16  17  18  19  20  21  22  24  25 0
 3-21G
 ****
 27  28  29  32  34  39  40  41  42  43  44  45  46  47  48  49 0
 3-21G
 ****


