%nproc=1
%NoSave
%Mem=1900MB
#P OB98/GEN NMR

erre ene a

0 1
  C      -41.458     750.522      73.492
  O      -40.234     751.104      73.905
  P      -38.879     750.803      73.117
  C      -37.642     749.060      74.555
  O      -38.502     749.272      73.434
  C      -36.864     747.758      74.383
  O      -37.756     746.623      74.276
  C      -36.026     747.706      73.109
  O      -34.933     748.606      73.014
  C      -35.710     746.219      73.039
  O      -34.619     745.870      73.885
  C      -37.027     745.595      73.553
  N      -37.832     745.016      72.470
  C      -37.450     743.742      72.045
  O      -36.505     743.123      72.531
  N      -38.179     743.223      71.019
  C      -39.197     743.848      70.354
  O      -39.769     743.345      69.400
  C      -39.537     745.202      70.830
  C      -38.849     745.714      71.851
  O      -37.776     751.778      73.345
  O      -39.358     750.705      71.576
  H      -34.968     745.781      74.795
  H      -40.018     750.014      71.405
  H      -37.922     742.308      70.676
  H      -40.352     745.718      70.331
  H      -39.083     746.703      72.222
  H      -36.815     744.801      74.281
  H      -35.434     745.916      72.019
  H      -36.678     747.932      72.258
  H      -36.246     747.605      75.285
  H      -38.250     748.989      75.463
  H      -36.969     749.913      74.669
  P      -34.269     749.016      71.609
  C      -32.746     746.979      71.108
  O      -33.939     747.678      70.795
  O      -33.218     750.073      71.669
  O      -35.542     749.583      70.803
  H      -35.243     750.282      70.192
  H      -32.661     746.133      70.432
  H      -32.775     746.612      72.136
  H      -31.872     747.623      70.967
  H      -42.244     750.844      74.143
  H      -41.377     749.456      73.531
  H      -41.678     750.827      72.490

 3  4  5  6  7  8  9  10  11  12  13  23  28  29  30  31  32 0
 6-311+G(2d,p)
 ****
 33  34 0
 6-311+G(2d,p)
 ****
 1  2  14  15  16  17  18  19  20  21  22  24  25  26  27 0
 3-21G
 ****
 35  36  37  38  39  40  41  42  43  44  45 0
 3-21G
 ****


