%nproc=1
%NoSave
%Mem=1900MB
#P OB98/GEN NMR

erre ene a

0 1
  C      -96.338      72.915     492.573
  O      -96.777      73.763     493.647
  P      -98.197      73.575     494.367
  C     -100.708      73.590     493.752
  O      -99.372      73.720     493.281
  C     -101.515      74.877     493.522
  O     -101.200      75.866     494.518
  C     -101.259      75.556     492.181
  O     -101.905      74.872     491.120
  C     -101.791      76.961     492.460
  O     -103.224      77.011     492.300
  C     -101.400      77.164     493.931
  N     -100.217      78.008     494.091
  C     -100.445      79.339     494.452
  O     -101.586      79.767     494.579
  N      -99.355      80.164     494.649
  C      -98.166      79.710     494.432
  N      -97.120      80.566     494.652
  C      -97.879      78.338     493.955
  C      -98.954      77.548     493.807
  O      -98.384      74.446     495.579
  O      -98.260      72.032     494.781
  H     -103.513      77.876     492.670
  H      -98.797      71.937     495.600
  H      -96.872      78.013     493.761
  H      -98.835      76.523     493.482
  H     -102.235      77.627     494.499
  H     -101.366      77.714     491.790
  H     -100.173      75.613     491.998
  H     -102.584      74.621     493.612
  H      -97.341      81.493     494.986
  H     -100.677      73.380     494.830
  H      -96.153      80.319     494.514
  H     -101.184      72.747     493.246
  P     -101.176      74.740     489.698
  C     -100.196      76.395     487.988
  O     -101.126      76.206     489.043
  O     -101.694      73.655     488.799
  O      -99.635      74.481     490.077
  H      -99.221      73.916     489.388
  H     -100.519      77.253     487.389
  H     -100.131      75.510     487.347
  H      -99.208      76.616     488.421
  H      -95.366      73.224     492.249
  H      -97.026      72.988     491.757
  H      -96.295      71.901     492.913

 3  4  5  6  7  8  9  10  11  12  13  23  27  28  29  30  32 0
 6-311+G(2d,p)
 ****
 34  35 0
 6-311+G(2d,p)
 ****
 1  2  14  15  16  17  18  19  20  21  22  24  25  26 0
 3-21G
 ****
 31  33  36  37  38  39  40  41  42  43  44  45  46 0
 3-21G
 ****


