%nproc=1
%NoSave
%Mem=1900MB
#P OB98/GEN NMR

erre ene a

0 1
  C      950.920     672.550      81.563
  O      949.739     673.121      81.038
  P      948.731     673.830      82.061
  C      946.878     673.870      80.209
  O      947.242     673.514      81.548
  C      945.730     672.993      79.729
  O      946.230     671.693      79.351
  C      944.642     672.730      80.750
  O      943.797     673.861      80.924
  C      943.961     671.514      80.151
  O      943.079     671.915      79.094
  C      945.149     670.741      79.564
  N      943.844     666.389      81.967
  C      943.137     667.237      81.184
  N      943.541     668.375      80.589
  C      944.839     668.611      80.896
  C      945.674     667.873      81.707
  C      945.133     666.698      82.238
  N      945.859     665.822      83.048
  N      946.925     668.427      81.781
  C      946.861     669.524      81.035
  N      945.608     669.676      80.467
  O      948.906     675.401      81.715
  O      948.987     673.550      83.520
  H      943.596     672.517      78.514
  H      948.818     675.954      82.522
  H      942.091     666.944      80.977
  H      947.659     670.225      80.856
  H      944.927     670.263      78.610
  H      943.361     670.948      80.876
  H      945.108     672.446      81.738
  H      945.297     673.457      78.822
  H      947.748     673.736      79.564
  H      945.353     665.105      83.522
  H      946.779     666.125      83.353
  H      946.607     674.921      80.200
  P      942.591     673.754      81.984
  C      941.965     675.935      80.785
  O      941.481     674.745      81.399
  O      943.170     674.569      83.238
  O      942.133     672.346      82.267
  H      943.543     675.428      82.972
  H      941.113     676.510      80.373
  H      942.644     675.693      79.951
  H      942.474     676.559      81.505
  H      951.490     672.116      80.768
  H      950.664     671.792      82.273
  H      951.500     673.309      82.045

 3  4  5  6  7  8  9  10  11  12  22  25  29  30  31  32 0
 6-311+G(2d,p)
 ****
 33  36  37 0
 6-311+G(2d,p)
 ****
 1  2  13  14  15  16  17  18  19  20  21  23  24  26 0
 3-21G
 ****
 27  28  34  35  38  39  40  41  42  43  44  45  46  47  48 0
 3-21G
 ****


