%nproc=1
%NoSave
%Mem=1900MB
#P OB98/GEN NMR

erre ene a

0 1
  C     -368.885    -336.636     218.503
  O     -368.794    -337.505     217.389
  H     -369.894    -336.706     218.924
  H     -368.710    -335.598     218.203
  H     -368.161    -336.925     219.267
  P     -367.463    -337.467     216.500
  C     -368.988    -337.047     214.450
  O     -367.847    -336.627     215.188
  C     -369.878    -335.850     214.132
  O     -370.002    -334.995     215.290
  C     -369.325    -334.963     213.021
  O     -369.520    -335.561     211.759
  C     -370.090    -333.678     213.270
  O     -371.415    -333.750     212.728
  C     -370.128    -333.637     214.819
  N     -369.086    -332.788     215.384
  C     -369.255    -331.407     215.213
  O     -370.243    -330.973     214.618
  N     -368.283    -330.567     215.700
  C     -367.250    -331.048     216.313
  N     -366.331    -330.162     216.771
  C     -367.044    -332.493     216.533
  C     -367.984    -333.295     216.041
  O     -366.798    -338.776     216.222
  O     -366.504    -336.464     217.302
  H     -371.912    -333.017     213.143
  H     -365.966    -336.953     217.953
  H     -366.169    -332.852     217.054
  H     -367.908    -334.373     216.154
  H     -371.101    -333.269     215.167
  H     -369.592    -332.826     212.816
  H     -368.260    -334.766     213.198
  H     -370.880    -336.218     213.875
  H     -366.512    -329.176     216.595
  H     -369.533    -337.770     215.074
  H     -365.535    -330.412     217.341
  H     -368.690    -337.549     213.523
  P     -368.264    -336.025     210.871
  C     -368.857    -334.090     209.272
  O     -367.830    -334.725     210.032
  O     -368.479    -337.269     210.070
  O     -367.087    -336.164     211.951
  H     -367.199    -336.973     212.505
  H     -368.450    -333.243     208.760
  H     -369.639    -333.769     209.928
  H     -369.252    -334.782     208.558

 6  7  8  9  10  11  12  13  14  15  16  26  30  31  32  33  35 0
 6-311+G(2d,p)
 ****
 37  38 0
 6-311+G(2d,p)
 ****
 1  2  3  4  5  17  18  19  20  21  22  23  24  25 0
 3-21G
 ****
 27  28  29  34  36  39  40  41  42  43  44  45  46 0
 3-21G
 ****


