%nproc=1
%NoSave
%Mem=1900MB
#P OB98/GEN NMR

erre ene a

0 1
  C     -284.940    -630.287    -924.538
  O     -283.594    -630.130    -924.956
  P     -283.221    -630.494    -926.478
  C     -281.071    -630.336    -927.924
  O     -281.731    -629.964    -926.715
  C     -279.565    -630.171    -927.771
  O     -279.209    -628.776    -927.704
  C     -278.992    -630.791    -926.498
  O     -278.786    -632.192    -926.630
  C     -277.647    -630.081    -926.397
  O     -276.700    -630.677    -927.290
  C     -278.014    -628.654    -926.885
  N     -275.894    -625.316    -923.727
  C     -275.370    -625.930    -924.861
  N     -274.081    -625.665    -925.145
  N     -276.044    -626.743    -925.622
  C     -277.332    -626.924    -925.221
  C     -277.958    -626.362    -924.117
  C     -277.192    -625.486    -923.272
  O     -277.581    -624.949    -922.230
  N     -279.265    -626.789    -924.024
  C     -279.418    -627.597    -925.069
  N     -278.264    -627.736    -925.785
  O     -284.118    -629.474    -927.324
  O     -283.483    -631.915    -926.856
  H     -277.121    -630.674    -928.180
  H     -284.194    -629.775    -928.245
  H     -275.326    -624.711    -923.171
  H     -280.343    -628.095    -925.318
  H     -277.225    -628.232    -927.515
  H     -277.224    -630.122    -925.395
  H     -273.478    -625.096    -924.545
  H     -279.601    -630.555    -925.628
  H     -273.639    -626.150    -925.917
  H     -279.076    -630.602    -928.666
  H     -281.425    -629.710    -928.748
  H     -281.314    -631.372    -928.160
  P     -278.397    -632.995    -925.294
  C     -279.009    -635.376    -924.458
  O     -279.340    -634.291    -925.287
  O     -279.004    -632.062    -924.131
  O     -276.940    -633.233    -925.117
  H     -278.507    -632.201    -923.313
  H     -279.889    -636.045    -924.379
  H     -278.739    -635.024    -923.445
  H     -278.177    -635.938    -924.881
  H     -285.029    -630.007    -923.509
  H     -285.233    -631.309    -924.656
  H     -285.573    -629.663    -925.133

 3  4  5  6  7  8  9  10  11  12  23  26  30  31 0
 6-311+G(2d,p)
 ****
 33  35  36  37  38 0
 6-311+G(2d,p)
 ****
 1  2  13  14  15  16  17  18  19  20  21  22  24  25 0
 3-21G
 ****
 27  28  29  32  34  39  40  41  42  43  44  45  46  47  48  49 0
 3-21G
 ****


