%nproc=1
%NoSave
%Mem=1900MB
#P OB98/GEN NMR

erre ene a

0 1
  C      -42.278     173.880    -155.209
  O      -41.812     173.465    -153.920
  P      -42.058     171.931    -153.518
  C      -39.603     171.315    -154.072
  O      -40.646     171.282    -153.108
  C      -38.291     170.772    -153.495
  O      -37.935     171.473    -152.270
  C      -38.341     169.279    -153.155
  O      -37.035     168.734    -153.391
  C      -38.604     169.277    -151.661
  O      -38.248     168.031    -151.066
  C      -37.766     170.482    -151.236
  N      -36.084     172.382    -146.806
  C      -35.436     171.943    -147.904
  N      -35.958     171.429    -149.040
  C      -37.300     171.434    -148.982
  C      -38.101     171.841    -147.926
  C      -37.438     172.335    -146.791
  N      -38.097     172.757    -145.659
  N      -39.436     171.647    -148.227
  C      -39.437     171.129    -149.439
  N      -38.175     171.009    -149.947
  O      -42.401     171.238    -154.920
  O      -43.160     171.736    -152.529
  H      -37.303     167.855    -151.267
  H      -43.349     171.015    -154.957
  H      -34.349     172.008    -147.867
  H      -40.316     170.818    -149.986
  H      -36.697     170.242    -151.161
  H      -39.669     169.456    -151.470
  H      -39.089     168.706    -153.711
  H      -37.492     170.957    -154.224
  H      -39.446     172.340    -154.421
  H      -37.546     173.070    -144.876
  H      -39.103     172.683    -145.618
  H      -39.919     170.744    -154.954
  P      -36.933     167.577    -154.496
  C      -36.706     169.036    -156.632
  O      -36.068     168.183    -155.699
  O      -38.415     167.496    -155.098
  O      -36.471     166.260    -153.963
  H      -38.581     166.606    -155.462
  H      -36.028     169.858    -156.878
  H      -37.637     169.455    -156.237
  H      -36.924     168.471    -157.541
  H      -42.054     174.916    -155.353
  H      -43.336     173.732    -155.270
  H      -41.792     173.302    -155.967

 3  4  5  6  7  8  9  10  11  12  22  25  29  30  31  32 0
 6-311+G(2d,p)
 ****
 33  36  37 0
 6-311+G(2d,p)
 ****
 1  2  13  14  15  16  17  18  19  20  21  23  24  26 0
 3-21G
 ****
 27  28  34  35  38  39  40  41  42  43  44  45  46  47  48 0
 3-21G
 ****


