%nproc=1
%NoSave
%Mem=1900MB
#P OB98/GEN NMR

erre ene a

0 1
  C     -528.807     -54.687    -232.608
  O     -527.787     -54.184    -231.734
  P     -526.645     -53.264    -232.387
  C     -527.637     -51.107    -231.279
  O     -527.272     -51.789    -232.472
  C     -528.417     -49.832    -231.622
  O     -529.607     -50.158    -232.386
  C     -528.902     -49.056    -230.410
  O     -527.848     -48.360    -229.774
  C     -529.966     -48.167    -231.049
  O     -529.350     -47.034    -231.685
  C     -530.569     -49.112    -232.112
  N     -531.861     -49.654    -231.730
  C     -532.942     -48.775    -231.790
  O     -532.822     -47.598    -232.118
  N     -534.154     -49.293    -231.436
  C     -534.390     -50.567    -231.007
  O     -535.504     -50.982    -230.710
  C     -533.207     -51.440    -230.916
  C     -532.016     -50.950    -231.281
  O     -526.654     -53.789    -233.899
  O     -525.330     -53.376    -231.683
  H     -527.538     -54.034    -234.209
  H     -530.074     -46.557    -232.144
  H     -534.948     -48.673    -231.481
  H     -533.347     -52.451    -230.558
  H     -531.131     -51.578    -231.214
  H     -530.703     -48.565    -233.062
  H     -530.682     -47.788    -230.319
  H     -529.378     -49.741    -229.694
  H     -527.768     -49.204    -232.248
  H     -526.743     -50.837    -230.715
  H     -528.235     -51.777    -230.652
  P     -527.335     -48.941    -228.369
  C     -524.989     -49.623    -229.303
  O     -526.202     -50.016    -228.697
  O     -528.593     -49.829    -227.924
  O     -526.950     -47.878    -227.381
  H     -528.959     -50.362    -228.646
  H     -524.237     -50.393    -229.131
  H     -524.628     -48.676    -228.882
  H     -525.136     -49.503    -230.383
  H     -529.498     -55.280    -232.046
  H     -528.358     -55.289    -233.371
  H     -529.326     -53.867    -233.060

 3  4  5  6  7  8  9  10  11  12  13  24  28  29  30  31  32 0
 6-311+G(2d,p)
 ****
 33  34 0
 6-311+G(2d,p)
 ****
 1  2  14  15  16  17  18  19  20  21  22  23  25  26  27 0
 3-21G
 ****
 35  36  37  38  39  40  41  42  43  44  45 0
 3-21G
 ****


