%nproc=1
%NoSave
%Mem=1900MB
#P OB98/GEN NMR

erre ene a

0 1
  C       15.523    -305.928    -312.679
  O       14.469    -305.996    -311.712
  P       14.761    -306.694    -310.301
  C       15.216    -304.628    -308.842
  O       15.779    -305.774    -309.478
  C       14.468    -305.029    -307.562
  O       15.348    -305.698    -306.623
  C       13.897    -303.846    -306.801
  O       12.756    -303.339    -307.465
  C       13.655    -304.457    -305.433
  O       12.411    -305.179    -305.401
  C       14.840    -305.439    -305.297
  N       15.893    -304.954    -304.405
  C       15.539    -304.830    -303.053
  O       14.395    -305.089    -302.682
  N       16.496    -304.408    -302.162
  C       17.686    -304.131    -302.585
  N       18.594    -303.711    -301.657
  C       18.083    -304.232    -303.994
  C       17.147    -304.641    -304.850
  O       15.117    -308.146    -310.362
  O       13.377    -306.487    -309.509
  H       12.451    -305.763    -304.609
  H       13.254    -307.234    -308.887
  H       19.098    -303.979    -304.292
  H       17.363    -304.741    -305.901
  H       14.499    -306.407    -304.910
  H       13.598    -303.696    -304.644
  H       14.654    -303.049    -306.720
  H       13.665    -305.724    -307.833
  H       18.277    -303.640    -300.693
  H       14.526    -304.132    -309.527
  H       19.565    -303.511    -301.877
  H       16.018    -303.906    -308.622
  P       12.330    -301.817    -307.176
  C       12.993    -300.753    -309.452
  O       13.275    -300.879    -308.075
  O       12.869    -301.568    -305.689
  O       10.865    -301.518    -307.274
  H       12.272    -300.953    -305.216
  H       13.494    -299.857    -309.839
  H       11.905    -300.631    -309.617
  H       13.341    -301.623    -309.999
  H       15.168    -305.436    -313.560
  H       15.843    -306.918    -312.928
  H       16.346    -305.379    -312.271

 3  4  5  6  7  8  9  10  11  12  13  23  27  28  29  30  32 0
 6-311+G(2d,p)
 ****
 34  35 0
 6-311+G(2d,p)
 ****
 1  2  14  15  16  17  18  19  20  21  22  24  25  26 0
 3-21G
 ****
 31  33  36  37  38  39  40  41  42  43  44  45  46 0
 3-21G
 ****


