%nproc=1
%NoSave
%Mem=1900MB
#P OB98/GEN NMR

erre ene a

0 1
  C     -606.417     492.374     975.800
  O     -605.375     491.768     975.022
  P     -604.884     490.268     975.350
  C     -603.266     490.700     977.296
  O     -604.531     490.149     976.920
  C     -602.355     489.689     978.018
  O     -601.003     490.192     978.107
  C     -602.804     489.321     979.445
  O     -602.425     487.954     979.634
  C     -601.958     490.252     980.296
  O     -601.878     489.824     981.651
  C     -600.630     490.246     979.513
  N     -599.793     491.413     979.817
  C     -598.850     491.260     980.832
  O     -598.775     490.185     981.452
  N     -598.026     492.307     981.133
  C     -598.224     493.456     980.551
  N     -597.375     494.462     980.907
  C     -599.259     493.700     979.536
  C     -599.997     492.639     979.218
  O     -603.826     489.742     974.439
  O     -606.220     489.391     975.214
  H     -601.700     488.862     981.675
  H     -605.989     488.492     974.920
  H     -599.392     494.671     979.106
  H     -600.795     492.702     978.482
  H     -600.054     489.340     979.739
  H     -602.399     491.265     980.289
  H     -603.881     489.474     979.625
  H     -602.310     488.768     977.398
  H     -596.685     494.276     981.623
  H     -603.437     491.573     977.935
  H     -597.515     495.428     980.609
  H     -602.752     491.071     976.393
  P     -603.493     486.765     979.666
  C     -604.413     487.135     982.031
  O     -604.682     487.215     980.651
  O     -602.927     485.416     979.943
  O     -604.194     486.806     978.210
  H     -604.637     485.948     978.030
  H     -605.177     487.661     982.596
  H     -603.436     487.605     982.278
  H     -604.390     486.070     982.330
  H     -606.604     493.363     975.437
  H     -606.115     492.422     976.825
  H     -607.309     491.789     975.718

 3  4  5  6  7  8  9  10  11  12  13  23  27  28  29  30  32 0
 6-311+G(2d,p)
 ****
 34  35 0
 6-311+G(2d,p)
 ****
 1  2  14  15  16  17  18  19  20  21  22  24  25  26 0
 3-21G
 ****
 31  33  36  37  38  39  40  41  42  43  44  45  46 0
 3-21G
 ****


