%nproc=1
%NoSave
%Mem=1900MB
#P OB98/GEN NMR

erre ene a

0 1
  C     -515.397     -25.278    -379.500
  O     -516.366     -24.919    -380.467
  P     -516.677     -23.375    -380.760
  C     -517.263     -23.645    -383.247
  O     -517.745     -23.294    -381.954
  C     -518.411     -23.655    -384.261
  O     -519.258     -24.813    -384.070
  C     -519.345     -22.461    -384.143
  O     -518.757     -21.269    -384.636
  C     -520.548     -22.962    -384.940
  O     -520.333     -22.795    -386.345
  C     -520.570     -24.454    -384.559
  N     -521.609     -24.772    -383.590
  C     -522.910     -24.383    -383.919
  O     -523.124     -23.734    -384.947
  N     -523.930     -24.731    -383.077
  C     -523.667     -25.300    -381.945
  N     -524.728     -25.677    -381.174
  C     -522.295     -25.585    -381.482
  C     -521.320     -25.316    -382.356
  O     -515.477     -22.504    -380.937
  O     -517.531     -22.902    -379.492
  H     -517.144     -22.074    -379.133
  H     -520.166     -21.848    -386.493
  H     -522.119     -25.995    -380.497
  H     -520.281     -25.505    -382.117
  H     -520.730     -25.067    -385.455
  H     -521.466     -22.415    -384.688
  H     -519.638     -22.310    -383.095
  H     -517.977     -23.703    -385.270
  H     -525.653     -25.485    -381.531
  H     -516.809     -24.640    -383.197
  H     -524.655     -26.396    -380.457
  H     -516.493     -22.927    -383.550
  P     -519.588     -19.914    -384.441
  C     -517.628     -18.272    -384.014
  O     -518.642     -18.697    -384.897
  O     -519.658     -19.753    -382.846
  O     -520.949     -19.929    -385.053
  H     -520.529     -19.373    -382.591
  H     -516.875     -17.718    -384.583
  H     -517.140     -19.118    -383.526
  H     -518.054     -17.610    -383.258
  H     -515.328     -26.344    -379.443
  H     -515.684     -24.888    -378.546
  H     -514.447     -24.873    -379.780

 3  4  5  6  7  8  9  10  11  12  13  24  27  28  29  30  32 0
 6-311+G(2d,p)
 ****
 34  35 0
 6-311+G(2d,p)
 ****
 1  2  14  15  16  17  18  19  20  21  22  23  25  26 0
 3-21G
 ****
 31  33  36  37  38  39  40  41  42  43  44  45  46 0
 3-21G
 ****


