%nproc=1
%NoSave
%Mem=1900MB
#P OB98/GEN NMR

erre ene a

0 1
  C       80.986     -12.844     -62.208
  O       80.671     -13.768     -63.235
  P       79.361     -14.678     -63.038
  C       80.856     -16.330     -61.702
  O       79.638     -15.596     -61.751
  C       80.899     -17.256     -60.485
  O       80.759     -16.459     -59.284
  C       79.805     -18.325     -60.474
  O       80.365     -19.518     -59.924
  C       78.779     -17.770     -59.505
  O       77.981     -18.805     -58.933
  C       79.679     -17.021     -58.511
  N       78.953     -15.990     -57.777
  C       79.018     -16.043     -56.382
  O       79.601     -16.975     -55.828
  N       78.380     -15.072     -55.652
  C       77.651     -14.189     -56.259
  N       77.041     -13.246     -55.493
  C       77.456     -14.172     -57.722
  C       78.146     -15.078     -58.413
  O       79.456     -15.710     -64.255
  O       78.074     -13.921     -63.034
  H       77.284     -19.046     -59.583
  H       78.567     -15.965     -64.564
  H       76.807     -13.437     -58.175
  H       78.083     -15.126     -59.491
  H       80.119     -17.719     -57.786
  H       78.115     -17.069     -60.025
  H       79.402     -18.530     -61.470
  H       81.889     -17.726     -60.448
  H       77.178     -13.287     -54.491
  H       81.691     -15.629     -61.627
  H       76.453     -12.519     -55.878
  H       80.972     -16.902     -62.627
  P       79.966     -20.911     -60.610
  C       77.975     -21.233     -59.022
  O       78.389     -21.058     -60.362
  O       80.555     -21.966     -59.553
  O       80.465     -21.192     -61.987
  H       80.431     -22.871     -59.890
  H       76.884     -21.181     -58.983
  H       78.389     -20.446     -58.388
  H       78.293     -22.215     -58.659
  H       81.876     -12.310     -62.469
  H       81.143     -13.371     -61.290
  H       80.177     -12.154     -62.089

 3  4  5  6  7  8  9  10  11  12  13  21  23  27  28  29  30  32 0
 6-311+G(2d,p)
 ****
 34  35 0
 6-311+G(2d,p)
 ****
 1  2  14  15  16  17  18  19  20  22  24  25  26 0
 3-21G
 ****
 31  33  36  37  38  39  40  41  42  43  44  45  46 0
 3-21G
 ****


