%nproc=1
%NoSave
%Mem=1900MB
#P OB98/GEN NMR

erre ene a

0 1
  C     -137.672     712.921     669.593
  O     -136.652     713.159     668.630
  P     -136.810     712.469     667.196
  C     -135.542     712.864     664.944
  O     -136.092     713.426     666.123
  C     -135.189     713.973     663.960
  O     -136.353     714.773     663.656
  C     -134.143     714.953     664.492
  O     -132.834     714.418     664.400
  C     -134.370     716.159     663.587
  O     -133.682     716.017     662.340
  C     -135.897     716.114     663.366
  N     -136.605     717.106     664.167
  C     -136.298     718.442     663.900
  O     -135.469     718.773     663.066
  N     -136.951     719.373     664.661
  C     -137.833     719.114     665.675
  O     -138.346     719.991     666.353
  C     -138.096     717.688     665.928
  C     -137.476     716.768     665.185
  O     -138.374     712.642     666.860
  O     -136.387     711.041     667.134
  H     -133.974     716.751     661.772
  H     -138.690     711.859     666.360
  H     -136.774     720.343     664.459
  H     -138.789     717.438     666.725
  H     -137.654     715.706     665.371
  H     -136.130     716.297     662.315
  H     -134.014     717.087     664.043
  H     -134.384     715.223     665.523
  H     -134.839     713.508     663.032
  H     -136.281     712.183     664.493
  H     -134.649     712.275     665.203
  P     -131.741     714.966     665.441
  C     -129.890     713.795     666.861
  O     -131.007     713.655     666.004
  O     -132.703     715.465     666.636
  O     -130.872     716.027     664.867
  H     -133.501     714.915     666.717
  H     -130.006     714.653     667.533
  H     -128.986     713.905     666.261
  H     -129.812     712.889     667.468
  H     -137.436     713.441     670.498
  H     -137.737     711.872     669.791
  H     -138.609     713.271     669.214

 3  4  5  6  7  8  9  10  11  12  13  23  28  29  30  31  32 0
 6-311+G(2d,p)
 ****
 33  34 0
 6-311+G(2d,p)
 ****
 1  2  14  15  16  17  18  19  20  21  22  24  25  26 0
 3-21G
 ****
 27  35  36  37  38  39  40  41  42  43  44  45 0
 3-21G
 ****


