%nproc=1
%NoSave
%Mem=1900MB
#P OB98/GEN NMR

erre ene a

0 1
  C      214.366     116.781    -239.452
  O      214.729     116.556    -238.104
  H      215.274     116.956    -240.035
  H      213.724     117.662    -239.526
  H      213.849     115.906    -239.858
  P      213.539     116.247    -237.065
  C      212.651     113.812    -237.327
  O      213.645     114.667    -236.771
  C      212.723     112.423    -236.685
  O      214.076     111.912    -236.805
  C      212.347     112.418    -235.197
  O      211.513     111.288    -234.922
  C      213.682     112.293    -234.480
  O      213.547     111.692    -233.192
  C      214.515     111.502    -235.493
  N      215.951     111.733    -235.321
  C      216.461     111.605    -234.024
  O      215.707     111.318    -233.088
  N      217.790     111.856    -233.807
  C      218.540     112.261    -234.789
  N      219.848     112.513    -234.502
  C      218.037     112.454    -236.163
  C      216.748     112.173    -236.357
  O      212.229     116.375    -237.973
  O      213.520     117.107    -235.846
  H      213.150     112.360    -232.586
  H      211.410     116.419    -237.422
  H      218.696     112.811    -236.942
  H      216.290     112.290    -237.333
  H      214.321     110.421    -235.398
  H      214.113     113.293    -234.342
  H      211.827     113.325    -234.890
  H      212.081     111.741    -237.259
  H      220.155     112.378    -233.549
  H      212.815     113.728    -238.404
  H      220.516     112.861    -235.179
  H      211.661     114.251    -237.146
  P      209.934     111.574    -234.883
  C      209.749     110.970    -237.400
  O      209.261     110.744    -236.084
  O      209.817     113.101    -235.357
  O      209.318     111.347    -233.540
  H      209.713     113.688    -234.584
  H      209.212     110.354    -238.090
  H      210.790     110.727    -237.441
  H      209.612     111.999    -237.659

 6  7  8  9  10  11  12  13  14  15  16  26  30  31  32  33  35 0
 6-311+G(2d,p)
 ****
 37  38 0
 6-311+G(2d,p)
 ****
 1  2  3  4  5  17  18  19  20  21  22  23  24  25 0
 3-21G
 ****
 27  28  29  34  36  39  40  41  42  43  44  45  46 0
 3-21G
 ****


