%nproc=1
%NoSave
%Mem=1900MB
#P OB98/GEN NMR

erre ene a

0 1
  C      233.709     687.277    -959.354
  O      234.495     687.745    -958.273
  H      234.329     687.260    -960.253
  H      232.874     687.962    -959.528
  H      233.349     686.274    -959.149
  P      233.829     687.918    -956.826
  C      236.104     687.715    -955.645
  O      234.980     688.557    -955.892
  C      237.421     688.495    -955.753
  O      237.542     689.025    -957.109
  C      237.517     689.669    -954.783
  O      238.793     689.664    -954.139
  C      237.410     690.905    -955.684
  O      238.002     692.065    -955.117
  C      238.065     690.364    -956.975
  N      237.756     691.202    -958.128
  C      238.683     692.236    -958.389
  O      239.668     692.375    -957.674
  N      238.415     693.072    -959.434
  C      237.320     692.963    -960.114
  N      237.111     693.858    -961.109
  C      236.324     691.909    -959.855
  C      236.590     691.069    -958.849
  O      233.184     686.688    -956.285
  O      232.800     689.140    -956.993
  H      238.978     691.917    -955.060
  H      232.117     689.084    -956.281
  H      235.408     691.856    -960.430
  H      235.918     690.268    -958.573
  H      239.149     690.302    -956.859
  H      236.343     691.110    -955.878
  H      236.729     689.671    -954.023
  H      238.256     687.792    -955.625
  H      237.830     694.580    -961.260
  H      236.086     686.878    -956.361
  H      236.276     693.890    -961.686
  H      236.022     687.309    -954.629
  P      238.818     689.135    -952.626
  C      241.009     687.740    -952.827
  O      240.343     688.840    -952.218
  O      238.178     687.653    -952.749
  O      238.041     689.968    -951.667
  H      237.295     687.635    -952.334
  H      242.010     687.677    -952.453
  H      241.033     687.880    -953.888
  H      240.486     686.835    -952.598

 6  7  8  9  10  11  12  13  14  15  16  26  30  31  32  33  35 0
 6-311+G(2d,p)
 ****
 37  38 0
 6-311+G(2d,p)
 ****
 1  2  3  4  5  17  18  19  20  21  22  23  24  25 0
 3-21G
 ****
 27  28  29  34  36  39  40  41  42  43  44  45  46 0
 3-21G
 ****


