%nproc=1
%NoSave
%Mem=1900MB
#P OB98/GEN NMR

erre ene a

0 1
  C      614.123    -179.601     914.356
  O      613.446    -178.347     914.454
  P      611.977    -178.243     915.088
  C      609.646    -179.110     914.412
  O      611.009    -178.942     914.011
  C      608.729    -178.918     913.204
  O      608.866    -180.085     912.328
  C      607.225    -178.824     913.502
  O      606.780    -177.519     913.882
  C      606.647    -179.201     912.152
  O      606.702    -178.059     911.266
  C      607.597    -180.303     911.676
  N      605.154    -184.405     909.848
  C      605.516    -183.225     909.264
  N      606.134    -182.180     909.828
  C      606.442    -182.444     911.108
  C      606.145    -183.585     911.827
  C      605.465    -184.610     911.155
  N      605.123    -185.811     911.726
  N      606.610    -183.490     913.136
  C      607.168    -182.298     913.196
  N      607.108    -181.633     911.991
  O      611.580    -176.866     915.516
  O      611.992    -179.297     916.300
  H      607.618    -177.988     910.939
  H      611.245    -179.118     916.897
  H      605.245    -183.115     908.225
  H      607.644    -181.871     914.066
  H      607.778    -180.262     910.591
  H      605.599    -179.492     912.213
  H      606.928    -179.575     914.249
  H      609.072    -178.030     912.633
  H      609.412    -178.344     915.167
  H      604.755    -186.526     911.112
  H      605.510    -186.026     912.647
  H      609.515    -180.103     914.850
  P      605.573    -177.435     914.941
  C      602.969    -177.577     914.726
  O      604.238    -177.592     914.067
  O      605.642    -176.249     915.845
  O      605.692    -178.837     915.726
  H      605.481    -179.627     915.177
  H      602.208    -177.533     913.953
  H      602.873    -176.692     915.369
  H      602.839    -178.489     915.306
  H      615.083    -179.454     913.907
  H      613.546    -180.271     913.754
  H      614.247    -180.017     915.334

 3  4  5  6  7  8  9  10  11  12  22  25  29  30  31  32 0
 6-311+G(2d,p)
 ****
 33  36  37 0
 6-311+G(2d,p)
 ****
 1  2  13  14  15  16  17  18  19  20  21  23  24  26 0
 3-21G
 ****
 27  28  34  35  38  39  40  41  42  43  44  45  46  47  48 0
 3-21G
 ****


