%nproc=1
%NoSave
%Mem=1900MB
#P OB98/GEN NMR

erre ene a

0 1
  C       96.152     101.301     -67.857
  O       97.513     100.911     -68.077
  P       98.405     100.591     -66.784
  C       99.242      98.322     -67.792
  O       98.554      98.994     -66.747
  C       98.879      96.835     -67.787
  O       97.457      96.661     -68.009
  C       99.564      96.024     -68.873
  O      100.929      95.797     -68.567
  C       98.694      94.773     -68.894
  O       99.066      93.889     -67.824
  C       97.291      95.358     -68.626
  N       96.468      95.439     -69.826
  C       95.740      94.296     -70.142
  O       95.791      93.261     -69.478
  N       94.961      94.375     -71.264
  C       94.865      95.451     -72.100
  O       94.142      95.464     -73.087
  C       95.696      96.611     -71.743
  C       96.446      96.555     -70.640
  O       97.375     100.922     -65.607
  O       99.680     101.364     -66.749
  H       96.458     100.694     -65.831
  H       99.897      93.453     -68.104
  H       94.418      93.559     -71.504
  H       95.664      97.473     -72.397
  H       97.068      97.400     -70.362
  H       96.757      94.741     -67.892
  H       98.783      94.214     -69.829
  H       99.483      96.548     -69.836
  H       99.124      96.430     -66.797
  H      100.320      98.427     -67.654
  H       98.981      98.789     -68.745
  P      101.997      96.817     -69.201
  C      102.983      97.535     -66.888
  O      102.309      97.907     -68.070
  O      101.084      97.604     -70.257
  O      103.191      96.145     -69.798
  H      100.217      97.855     -69.899
  H      103.402      98.433     -66.427
  H      103.795      96.835     -67.099
  H      102.275      97.078     -66.190
  H       95.677     101.483     -68.798
  H       96.128     102.193     -67.267
  H       95.636     100.518     -67.342

 3  4  5  6  7  8  9  10  11  12  13  24  28  29  30  31  32 0
 6-311+G(2d,p)
 ****
 33  34 0
 6-311+G(2d,p)
 ****
 1  2  14  15  16  17  18  19  20  21  22  23  25  26  27 0
 3-21G
 ****
 35  36  37  38  39  40  41  42  43  44  45 0
 3-21G
 ****


