%nproc=1
%NoSave
%Mem=1900MB
#P OB98/GEN NMR

erre ene a

0 1
  C      394.316    -120.560      64.480
  O      394.509    -119.986      63.183
  P      395.941    -120.230      62.492
  C      396.878    -117.808      62.296
  O      396.916    -119.053      62.983
  C      397.882    -116.828      62.899
  O      397.587    -116.564      64.281
  C      399.321    -117.325      62.888
  O      399.926    -117.160      61.614
  C      399.960    -116.400      63.914
  O      400.304    -115.147      63.294
  C      398.828    -116.203      64.934
  N      400.866    -116.498      69.566
  C      400.940    -115.483      68.629
  N      401.627    -114.380      68.991
  N      400.381    -115.544      67.448
  C      399.699    -116.697      67.237
  C      399.557    -117.771      68.080
  C      400.203    -117.702      69.374
  O      400.200    -118.586      70.227
  N      398.783    -118.754      67.520
  C      398.433    -118.262      66.347
  N      398.977    -117.019      66.123
  O      395.668    -119.864      60.957
  O      396.462    -121.618      62.653
  H      399.467    -114.727      63.010
  H      396.287    -120.350      60.382
  H      401.320    -116.400      70.455
  H      397.791    -118.758      65.631
  H      398.737    -115.155      65.245
  H      400.884    -116.807      64.333
  H      402.020    -114.235      69.909
  H      399.380    -118.363      63.238
  H      401.661    -113.612      68.329
  H      397.810    -115.886      62.340
  H      395.873    -117.383      62.361
  H      397.083    -117.982      61.235
  P      400.141    -118.480      60.728
  C      402.348    -119.074      61.950
  O      401.029    -119.463      61.626
  O      401.144    -117.987      59.582
  O      398.884    -119.055      60.163
  H      401.008    -118.505      58.768
  H      402.395    -118.022      62.232
  H      403.006    -119.257      61.094
  H      402.696    -119.679      62.793
  H      393.331    -120.329      64.829
  H      395.039    -120.158      65.159
  H      394.433    -121.622      64.421

 3  4  5  6  7  8  9  10  11  12  23  26  30  31  33  0
 6-311+G(2d,p)
 ****
 35  36  37  38 0
 6-311+G(2d,p)
 ****
 1  2  13  14  15  16  17  18  19  20  21  22  24  25  27  28  29 0
 3-21G
 ****
 32  34  39  40  41  42  43  44  45  46  47  48  49 0
 3-21G
 ****


