%nproc=1
%NoSave
%Mem=1900MB
#P OB98/GEN NMR

erre ene a

0 1
  C     -131.697     193.323     -31.376
  O     -130.409     193.519     -31.911
  P     -130.011     194.759     -32.831
  C     -130.052     193.337     -35.026
  O     -130.531     194.476     -34.321
  C     -130.076     193.579     -36.543
  O     -131.456     193.548     -36.993
  C     -129.518     194.964     -36.903
  O     -128.678     194.972     -38.050
  C     -130.770     195.832     -36.949
  O     -130.602     197.035     -37.684
  C     -131.806     194.855     -37.494
  N     -135.868     197.799     -38.295
  C     -134.723     197.671     -39.056
  N     -134.569     198.572     -40.052
  N     -133.805     196.766     -38.834
  C     -134.044     196.012     -37.738
  C     -135.141     196.047     -36.908
  C     -136.163     197.027     -37.183
  O     -137.138     197.253     -36.468
  N     -135.009     195.180     -35.854
  C     -133.819     194.646     -36.025
  N     -133.179     195.143     -37.136
  O     -128.630     195.303     -32.662
  O     -131.047     195.889     -32.323
  H     -129.990     197.604     -37.182
  H     -130.585     196.749     -32.385
  H     -136.503     198.571     -38.469
  H     -133.358     193.919     -35.363
  H     -131.780     194.813     -38.585
  H     -131.008     196.121     -35.919
  H     -135.185     199.367     -40.152
  H     -128.861     195.332     -36.108
  H     -133.641     198.658     -40.456
  H     -129.542     192.766     -37.046
  H     -130.723     192.510     -34.766
  H     -129.047     193.073     -34.692
  P     -127.255     195.668     -38.245
  C     -128.207     197.592     -39.651
  O     -127.481     197.234     -38.489
  O     -126.735     195.158     -39.667
  O     -126.253     195.347     -37.184
  H     -125.776     194.985     -39.622
  H     -128.055     198.656     -39.846
  H     -129.272     197.409     -39.487
  H     -127.863     197.018     -40.517
  H     -131.709     192.424     -30.797
  H     -132.406     193.243     -32.173
  H     -131.954     194.153     -30.752

 3  4  5  6  7  8  9  10  11  12  23  26  30  31 0
 6-311+G(2d,p)
 ****
 33  35  36  37  38 0
 6-311+G(2d,p)
 ****
 1  2  13  14  15  16  17  18  19  20  21  22  24  25 0
 3-21G
 ****
 27  28  29  32  34  39  40  41  42  43  44  45  46  47  48  49 0
 3-21G
 ****


