%nproc=1
%NoSave
%Mem=1900MB
#P OB98/GEN NMR

erre ene a

0 1
  C     -172.714     341.766     202.688
  O     -172.106     341.797     201.391
  P     -172.604     342.967     200.402
  C     -170.148     343.799     200.205
  O     -171.507     344.147     200.436
  C     -169.285     345.034     199.927
  O     -169.514     345.483     198.575
  C     -169.563     346.227     200.851
  O     -168.322     346.890     201.130
  C     -170.387     347.159     199.983
  O     -170.323     348.511     200.426
  C     -169.751     346.901     198.620
  N     -170.768     350.634     195.362
  C     -169.747     350.520     196.281
  N     -168.893     351.566     196.362
  N     -169.583     349.484     197.056
  C     -170.492     348.507     196.842
  C     -171.544     348.491     195.955
  C     -171.741     349.664     195.134
  O     -172.651     349.843     194.334
  N     -172.252     347.313     196.033
  C     -171.638     346.618     196.973
  N     -170.566     347.306     197.501
  O     -173.860     343.583     201.176
  O     -172.977     342.487     199.045
  H     -169.443     348.851     200.189
  H     -174.650     343.550     200.608
  H     -170.865     351.463     194.802
  H     -171.929     345.642     197.318
  H     -168.779     347.408     198.533
  H     -171.438     346.844     200.006
  H     -168.927     352.366     195.753
  H     -170.068     345.969     201.788
  H     -168.113     351.480     197.004
  H     -168.235     344.737     200.002
  H     -170.089     343.125     199.347
  H     -169.775     343.263     201.084
  P     -167.583     346.485     202.497
  C     -165.713     345.143     201.281
  O     -166.804     345.120     202.186
  O     -168.789     346.023     203.442
  O     -166.773     347.578     203.103
  H     -168.554     346.156     204.379
  H     -165.398     346.160     201.039
  H     -166.001     344.635     200.355
  H     -164.869     344.612     201.732
  H     -172.308     340.953     203.253
  H     -173.771     341.635     202.583
  H     -172.517     342.687     203.196

 3  4  5  6  7  8  9  10  11  12  23  26  30  31  33  0
 6-311+G(2d,p)
 ****
 35  36  37  38 0
 6-311+G(2d,p)
 ****
 1  2  13  14  15  16  17  18  19  20  21  22  24  25  27  28  29 0
 3-21G
 ****
 32  34  39  40  41  42  43  44  45  46  47  48  49 0
 3-21G
 ****


