%nproc=1
%NoSave
%Mem=1900MB
#P OB98/GEN NMR

erre ene a

0 1
  C     -260.022     -53.813    -716.727
  O     -260.768     -53.478    -717.879
  H     -259.566     -52.914    -716.311
  H     -260.700     -54.250    -715.985
  H     -259.249     -54.549    -716.970
  P     -259.941     -52.990    -719.163
  C     -258.697     -50.788    -719.785
  O     -259.346     -51.547    -718.772
  C     -258.122     -49.498    -719.204
  O     -259.229     -48.675    -718.719
  C     -257.161     -49.723    -718.030
  O     -256.092     -48.779    -718.121
  C     -258.013     -49.423    -716.809
  O     -257.230     -49.024    -715.689
  C     -258.942     -48.339    -717.342
  N     -261.048     -46.559    -713.042
  C     -259.818     -46.408    -713.578
  N     -259.332     -46.905    -714.734
  C     -260.293     -47.595    -715.371
  C     -261.587     -47.847    -714.961
  C     -261.961     -47.306    -713.718
  N     -263.203     -47.490    -713.148
  N     -262.256     -48.632    -715.892
  C     -261.375     -48.852    -716.843
  N     -260.178     -48.249    -716.582
  O     -261.103     -52.646    -720.211
  O     -258.955     -53.970    -719.714
  H     -256.572     -49.727    -715.499
  H     -261.422     -53.470    -720.624
  H     -259.132     -45.801    -712.999
  H     -261.560     -49.446    -717.727
  H     -258.479     -47.337    -717.328
  H     -258.587     -50.317    -716.525
  H     -256.754     -50.737    -718.011
  H     -257.639     -48.931    -720.009
  H     -259.418     -50.547    -720.581
  H     -263.364     -47.102    -712.228
  H     -263.868     -48.084    -713.607
  H     -257.883     -51.393    -720.213
  P     -254.593     -49.381    -718.135
  C     -253.005     -50.557    -716.487
  O     -254.235     -49.907    -716.661
  O     -253.676     -48.076    -718.319
  O     -254.368     -50.364    -719.241
  H     -253.041     -48.210    -719.046
  H     -252.899     -50.852    -715.464
  H     -252.210     -49.892    -716.751
  H     -252.968     -51.424    -717.113

 6  7  8  9  10  11  12  13  14  15  25  28  32  33  34  35 0
 6-311+G(2d,p)
 ****
 36  39  40 0
 6-311+G(2d,p)
 ****
 1  2  3  4  5  16  17  18  19  20  21  22  23  24 0
 3-21G
 ****
 26  27  29  30  31  37  38  41  42  43  44  45  46  47 0
 3-21G
 ****
 48 0
 3-21G
 ****


