%nproc=1
%NoSave
%Mem=1900MB
#P OB98/GEN NMR

erre ene a

0 1
  C      655.561    -141.461      90.635
  O      654.180    -141.265      90.397
  P      653.684    -140.135      89.379
  C      654.461    -137.978      90.545
  O      653.360    -138.842      90.260
  C      653.952    -136.639      91.074
  O      653.202    -135.925      90.064
  C      652.987    -136.762      92.249
  O      653.504    -137.268      93.459
  C      652.397    -135.359      92.287
  O      653.246    -134.432      92.954
  C      652.303    -135.026      90.773
  N      650.935    -135.119      90.262
  C      650.082    -134.100      90.656
  O      650.422    -133.157      91.376
  N      648.782    -134.197      90.204
  C      648.270    -135.215      89.476
  O      647.098    -135.274      89.139
  C      649.224    -136.283      89.104
  C      650.495    -136.184      89.504
  O      652.581    -140.555      88.454
  O      655.034    -139.703      88.621
  H      652.811    -133.557      92.909
  H      655.733    -139.346      89.202
  H      648.147    -133.473      90.490
  H      648.846    -137.099      88.501
  H      651.212    -136.954      89.255
  H      652.677    -134.006      90.586
  H      651.432    -135.350      92.807
  H      652.189    -137.443      91.953
  H      654.824    -136.019      91.323
  H      655.019    -137.803      89.623
  H      655.134    -138.458      91.258
  P      653.009    -138.647      94.116
  C      650.783    -138.114      95.358
  O      652.187    -138.293      95.450
  O      654.013    -139.746      94.195
  O      651.829    -139.065      93.112
  H      651.789    -140.057      93.072
  H      650.403    -137.843      96.346
  H      650.310    -139.041      95.043
  H      650.560    -137.320      94.657
  H      655.692    -142.255      91.340
  H      655.986    -140.561      91.028
  H      656.049    -141.715      89.717

 3  4  5  6  7  8  9  10  11  12  13  23  28  29  30  31  32 0
 6-311+G(2d,p)
 ****
 33  34 0
 6-311+G(2d,p)
 ****
 1  2  14  15  16  17  18  19  20  21  22  24  25  26  27 0
 3-21G
 ****
 35  36  37  38  39  40  41  42  43  44  45 0
 3-21G
 ****


