%nproc=1
%NoSave
%Mem=1900MB
#P OB98/GEN NMR

erre ene a

0 1
  C      836.482     100.692    1483.165
  O      837.918     100.781    1482.975
  P      838.723      99.841    1481.933
  C      840.214      98.875    1483.806
  O      840.158      99.520    1482.518
  C      841.611      98.922    1484.411
  O      842.525      98.085    1483.658
  C      842.247     100.319    1484.444
  O      841.696     101.140    1485.457
  C      843.732      99.950    1484.619
  O      844.033      99.725    1486.014
  C      843.843      98.653    1483.804
  N      844.473      98.868    1482.494
  C      845.840      98.606    1482.429
  O      846.476      98.266    1483.424
  N      846.468      98.774    1481.185
  C      845.790      99.219    1480.162
  N      846.463      99.326    1478.995
  C      844.371      99.591    1480.240
  C      843.763      99.372    1481.412
  O      838.731     100.380    1480.519
  O      837.967      98.424    1481.974
  H      844.949      99.397    1486.042
  H      838.027      98.009    1481.104
  H      843.834      99.967    1479.356
  H      842.710      99.623    1481.562
  H      844.444      97.915    1484.345
  H      844.404     100.742    1484.281
  H      842.116     100.785    1483.457
  H      841.544      98.537    1485.447
  H      847.448      99.066    1478.973
  H      839.899      97.819    1483.677
  H      846.022      99.654    1478.135
  H      839.492      99.365    1484.475
  P      840.328     101.902    1485.208
  C      841.478     103.913    1484.097
  O      840.646     103.485    1485.150
  O      839.172     101.535    1486.097
  O      839.984     101.577    1483.642
  H      839.019     101.557    1483.537
  H      841.352     104.983    1483.955
  H      841.323     103.383    1483.175
  H      842.555     103.750    1484.415
  H      836.174     101.407    1483.899
  H      836.226      99.707    1483.497
  H      835.986     100.896    1482.239

 3  4  5  6  7  8  9  10  11  12  13  23  27  28  29  30  32 0
 6-311+G(2d,p)
 ****
 34  35 0
 6-311+G(2d,p)
 ****
 1  2  14  15  16  17  18  19  20  21  22  24  25  26 0
 3-21G
 ****
 31  33  36  37  38  39  40  41  42  43  44  45  46 0
 3-21G
 ****


