%nproc=1
%NoSave
%Mem=1900MB
#P OB98/GEN NMR

erre ene a

0 1
  C     -178.117    -264.050     939.465
  O     -178.102    -265.169     938.599
  H     -179.155    -263.841     939.743
  H     -177.702    -263.170     938.963
  H     -177.546    -264.269     940.370
  P     -176.663    -265.615     938.044
  C     -176.567    -267.858     939.338
  O     -176.706    -267.219     938.073
  C     -177.436    -269.108     939.410
  O     -178.821    -268.752     939.438
  C     -177.245    -270.060     938.233
  O     -176.133    -270.895     938.425
  C     -178.561    -270.852     938.299
  O     -178.435    -271.883     939.302
  C     -179.579    -269.788     938.756
  N     -183.186    -270.549     935.183
  C     -182.513    -271.400     935.966
  N     -181.517    -271.141     936.856
  C     -181.262    -269.822     936.898
  C     -181.868    -268.820     936.157
  C     -182.889    -269.225     935.266
  N     -183.571    -268.324     934.465
  N     -181.343    -267.586     936.471
  C     -180.473    -267.831     937.427
  N     -180.361    -269.170     937.704
  O     -175.486    -264.972     938.684
  O     -176.833    -265.299     936.477
  H     -177.777    -272.526     938.959
  H     -177.723    -265.556     936.177
  H     -182.797    -272.448     935.867
  H     -179.916    -267.067     937.964
  H     -180.290    -270.202     939.481
  H     -178.799    -271.347     937.359
  H     -177.216    -269.515     937.278
  H     -177.208    -269.623     940.355
  H     -176.852    -267.165     940.142
  H     -184.136    -268.724     933.737
  H     -183.257    -267.377     934.442
  H     -175.507    -268.113     939.470
  P     -175.461    -271.693     937.199
  C     -174.008    -269.612     936.736
  O     -174.017    -271.003     937.012
  O     -176.309    -271.767     935.977
  O     -175.108    -273.117     937.803
  H     -174.937    -273.760     937.083
  H     -172.998    -269.275     936.634
  H     -174.480    -269.086     937.539
  H     -174.540    -269.425     935.826

 6  7  8  9  10  11  12  13  14  15  25  28  32  33  34  35 0
 6-311+G(2d,p)
 ****
 36  39  40 0
 6-311+G(2d,p)
 ****
 1  2  3  4  5  16  17  18  19  20  21  22  23  24 0
 3-21G
 ****
 26  27  29  30  31  37  38  41  42  43  44  45  46  47 0
 3-21G
 ****
 48 0
 3-21G
 ****


