%nproc=1
%NoSave
%Mem=1900MB
#P OB98/GEN NMR

erre ene a

0 1
  C      472.208     310.090       9.531
  O      471.445     310.273      10.706
  H      473.149     309.589       9.767
  H      471.641     309.467       8.835
  H      472.408     311.054       9.056
  P      472.119     311.136      11.879
  C      472.001     309.299      13.704
  O      471.541     310.570      13.269
  C      471.034     308.722      14.736
  O      471.104     309.535      15.934
  C      469.565     308.672      14.278
  O      469.075     307.329      14.337
  C      468.819     309.501      15.311
  O      467.562     308.939      15.682
  C      469.784     309.552      16.491
  N      467.297     311.431      20.520
  C      467.618     310.164      20.181
  N      468.374     309.738      19.148
  C      468.841     310.780      18.439
  C      468.620     312.126      18.678
  C      467.791     312.442      19.764
  N      467.415     313.730      20.079
  N      469.257     312.902      17.727
  C      469.818     312.039      16.907
  N      469.578     310.744      17.287
  O      471.415     312.567      11.733
  O      473.606     311.242      11.811
  H      467.255     309.430      16.466
  H      472.092     313.268      11.753
  H      467.207     309.387      20.818
  H      470.365     312.289      16.007
  H      469.680     308.679      17.145
  H      468.640     310.503      14.900
  H      469.423     309.075      13.271
  H      471.381     307.716      15.007
  H      472.989     309.408      14.167
  H      466.725     313.856      20.801
  H      467.689     314.476      19.456
  H      472.090     308.636      12.840
  P      469.238     306.442      13.003
  C      466.785     306.937      12.283
  O      467.771     305.954      12.573
  O      469.928     305.104      13.544
  O      470.045     307.100      11.936
  H      470.447     304.684      12.832
  H      465.868     306.454      12.014
  H      467.118     307.547      11.470
  H      466.626     307.549      13.146

 6  7  8  9  10  11  12  13  14  15  25  28  32  33  34  35 0
 6-311+G(2d,p)
 ****
 36  39  40 0
 6-311+G(2d,p)
 ****
 1  2  3  4  5  16  17  18  19  20  21  22  23  24 0
 3-21G
 ****
 26  27  29  30  31  37  38  41  42  43  44  45  46  47  48 0
 3-21G
 ****


