%nproc=1
%NoSave
%Mem=1900MB
#P OB98/GEN NMR

erre ene a

0 1
  C       72.904      16.493     118.953
  O       73.468      15.727     117.907
  H       73.560      17.342     119.158
  H       72.816      15.887     119.858
  H       71.920      16.869     118.660
  P       72.641      14.436     117.435
  C       73.845      12.870     119.126
  O       72.615      13.432     118.686
  C       73.593      11.952     120.318
  O       73.125      12.732     121.443
  C       72.515      10.906     120.074
  O       72.988       9.810     119.312
  C       72.137      10.537     121.499
  O       73.038       9.565     122.045
  C       72.279      11.871     122.239
  N       69.033      13.487     125.832
  C       70.278      12.971     125.908
  N       71.084      12.575     124.900
  C       70.493      12.786     123.711
  C       69.233      13.308     123.477
  C       68.483      13.672     124.609
  N       67.207      14.174     124.534
  N       68.962      13.334     122.124
  C       70.041      12.845     121.550
  N       70.995      12.505     122.469
  O       73.634      13.729     116.399
  O       71.312      14.725     116.823
  H       72.525       9.059     122.705
  H       73.364      13.948     115.488
  H       70.676      12.850     126.911
  H       70.177      12.713     120.484
  H       72.762      11.753     123.217
  H       71.132      10.116     121.538
  H       71.646      11.366     119.587
  H       74.541      11.478     120.602
  H       74.525      13.674     119.426
  H       74.296      12.313     118.298
  H       66.703      14.349     125.387
  H       66.745      14.208     123.634
  P       71.951       9.080     118.332
  C       71.236       7.090     119.858
  O       70.879       8.325     119.252
  O       72.805       7.890     117.688
  O       71.356       9.964     117.289
  H       72.531       7.749     116.762
  H       70.412       6.724     120.434
  H       72.081       7.238     120.498
  H       71.484       6.379     119.098

 6  7  8  9  10  11  12  13  14  15  25  28  32  33  34  35 0
 6-311+G(2d,p)
 ****
 36  37  40 0
 6-311+G(2d,p)
 ****
 1  2  3  4  5  16  17  18  19  20  21  22  23  24 0
 3-21G
 ****
 26  27  29  30  31  38  39 41  42  43  44  45  46  47  48 0
 3-21G
 ****


