%nproc=1
%NoSave
%Mem=1900MB
#P OB98/GEN NMR

erre ene a

0 1
  C       48.394      30.439      49.722
  O       49.735      30.518      50.157
  H       47.842      29.795      50.411
  H       48.337      30.006      48.720
  H       47.933      31.430      49.728
  P       50.786      31.316      49.243
  C       52.410      31.782      51.207
  O       52.197      31.098      49.982
  C       53.510      31.094      52.011
  O       53.033      29.868      52.601
  C       54.735      30.683      51.200
  O       55.567      31.773      50.841
  C       55.403      29.742      52.190
  O       56.053      30.509      53.219
  C       54.178      28.983      52.756
  N       53.935      27.710      52.082
  C       54.596      26.590      52.600
  O       55.340      26.697      53.574
  N       54.430      25.376      51.978
  C       53.685      25.291      50.921
  N       53.591      24.075      50.315
  C       52.956      26.441      50.352
  C       53.127      27.607      50.970
  O       50.443      32.736      48.926
  O       50.959      30.398      47.943
  H       55.357      30.817      53.828
  H       51.593      30.855      47.338
  H       52.354      26.317      49.464
  H       52.638      28.502      50.602
  H       54.298      28.798      53.829
  H       56.162      29.102      51.733
  H       54.442      30.108      50.316
  H       53.782      31.764      52.838
  H       54.138      23.321      50.708
  H       51.466      31.790      51.761
  H       53.271      23.987      49.357
  H       52.718      32.813      51.013
  P       56.219      31.769      49.373
  C       55.258      34.151      48.935
  O       56.396      33.305      48.945
  O       55.018      31.255      48.452
  O       57.458      30.945      49.217
  H       55.066      30.288      48.318
  H       55.547      35.135      48.629
  H       54.836      34.193      49.917
  H       54.532      33.764      48.251

 6  7  8  9  10  11  12  13  14  15  16  26  30  31  32  33  35 0
 6-311+G(2d,p)
 ****
 37  38 0
 6-311+G(2d,p)
 ****
 1  2  3  4  5  17  18  19  20  21  22  23  24  25 0
 3-21G
 ****
 27  28  29  34  36  39  40  41  42  43  44  45  46 0
 3-21G
 ****


