%nproc=1
%NoSave
%Mem=1900MB
#P OB98/GEN NMR

erre ene a

0 1
  C      623.244     560.301    -138.003
  O      624.303     559.413    -137.700
  P      624.808     558.360    -138.801
  C      623.602     556.619    -140.254
  O      623.681     557.231    -138.971
  C      622.431     555.644    -140.308
  O      621.166     556.356    -140.403
  C      622.444     554.718    -141.527
  O      623.436     553.724    -141.403
  C      621.007     554.209    -141.517
  O      620.847     553.145    -140.559
  C      620.228     555.466    -141.061
  N      619.559     556.131    -142.169
  C      618.253     555.713    -142.429
  O      617.754     554.775    -141.801
  N      617.539     556.369    -143.417
  C      618.128     557.257    -144.154
  N      617.365     557.917    -145.065
  C      619.558     557.608    -144.013
  C      620.205     557.029    -142.988
  O      626.191     557.831    -138.584
  O      624.721     559.160    -140.179
  H      625.578     559.063    -140.663
  H      619.891     553.028    -140.440
  H      620.020     558.321    -144.688
  H      621.243     557.242    -142.804
  H      619.494     555.194    -140.300
  H      620.710     553.817    -142.493
  H      622.628     555.306    -142.429
  H      622.426     555.059    -139.374
  H      616.382     557.663    -145.121
  H      624.532     556.092    -140.448
  H      617.611     558.831    -145.446
  H      623.492     557.395    -141.020
  P      623.825     552.908    -142.743
  C      622.461     551.386    -144.331
  O      622.656     551.845    -143.013
  O      625.064     552.006    -142.285
  O      624.175     553.772    -143.908
  H      625.701     551.932    -143.015
  H      621.887     550.453    -144.289
  H      623.405     551.214    -144.838
  H      621.861     552.133    -144.888
  H      623.047     560.923    -137.155
  H      622.366     559.740    -138.245
  H      623.518     560.912    -138.838

 3  4  5  6  7  8  9  10  11  12  13  24  27  28  29  30  32 0
 6-311+G(2d,p)
 ****
 34  35 0
 6-311+G(2d,p)
 ****
 1  2  14  15  16  17  18  19  20  21  22  23  25  26 0
 3-21G
 ****
 31  33  36  37  38  39  40  41  42  43  44  45  46 0
 3-21G
 ****


