%nproc=1
%NoSave
%Mem=1900MB
#P OB98/GEN NMR

erre ene a

0 1
  C       53.328    -235.506     253.507
  O       53.177    -236.184     252.270
  H       54.289    -235.786     253.939
  H       52.531    -235.803     254.194
  H       53.305    -234.427     253.354
  P       51.818    -235.892     251.466
  C       50.979    -238.259     252.157
  O       50.708    -236.868     252.093
  C       49.930    -238.969     253.038
  O       48.628    -238.877     252.369
  C       50.214    -240.468     253.263
  O       49.658    -240.828     254.537
  C       49.404    -241.103     252.139
  O       49.259    -242.494     252.352
  C       48.158    -240.234     252.212
  N       44.618    -243.039     249.792
  C       45.215    -243.183     250.998
  N       46.135    -242.387     251.587
  C       46.424    -241.338     250.791
  C       45.894    -241.050     249.541
  C       44.949    -241.970     249.030
  N       44.352    -241.821     247.803
  N       46.447    -239.882     249.036
  C       47.289    -239.477     249.959
  N       47.312    -240.320     251.037
  O       52.105    -236.517     250.017
  O       51.421    -234.455     251.374
  H       48.555    -242.664     253.012
  H       52.425    -235.821     249.411
  H       44.905    -244.061     251.578
  H       47.898    -238.585     249.910
  H       47.533    -240.471     253.082
  H       49.911    -240.984     251.181
  H       51.279    -240.712     253.248
  H       49.840    -238.427     253.983
  H       51.980    -238.401     252.589
  H       50.952    -238.696     251.146
  H       43.701    -242.532     247.506
  H       44.605    -241.035     247.218
  P       50.605    -240.869     255.832
  C       50.947    -243.420     255.367
  O       51.530    -242.179     255.755
  O       49.575    -241.252     256.998
  O       51.322    -239.589     256.156
  H       49.894    -240.895     257.838
  H       51.698    -244.182     255.368
  H       50.533    -243.328     254.384
  H       50.172    -243.681     256.057

 6  7  8  9  10  11  12  13  14  15  25  28  32  33  34  35 0
 6-311+G(2d,p)
 ****
 36  37  40 0
 6-311+G(2d,p)
 ****
 1  2  3  4  5  16  17  18  19  20  21  22  23  24 0
 3-21G
 ****
 26  27  29  30  31  38  39 41  42  43  44  45  46  47  48 0
 3-21G
 ****


