%nproc=1
%NoSave
%Mem=1900MB
#P OB98/GEN NMR

erre ene a

0 1
  C     -364.298    -635.354    -258.431
  O     -363.164    -635.859    -257.761
  H     -364.368    -634.280    -258.239
  H     -365.205    -635.839    -258.064
  H     -364.204    -635.513    -259.512
  P     -362.860    -637.432    -257.828
  C     -363.862    -639.566    -256.776
  O     -363.869    -638.145    -256.802
  C     -364.303    -640.071    -255.399
  O     -363.389    -639.535    -254.413
  C     -365.730    -639.619    -255.033
  O     -366.573    -640.702    -254.643
  C     -365.493    -638.496    -254.025
  O     -366.550    -638.292    -253.121
  C     -364.156    -638.890    -253.378
  N     -363.421    -637.758    -252.814
  C     -363.430    -637.612    -251.432
  O     -363.994    -638.370    -250.641
  N     -362.732    -636.532    -250.944
  C     -362.066    -635.605    -251.688
  O     -361.460    -634.662    -251.193
  C     -362.117    -635.798    -253.144
  C     -362.782    -636.844    -253.637
  O     -361.428    -637.822    -257.665
  O     -363.429    -637.879    -259.258
  H     -366.598    -639.083    -252.547
  H     -362.685    -638.028    -259.873
  H     -362.719    -636.429    -249.945
  H     -361.607    -635.066    -253.764
  H     -362.841    -637.016    -254.706
  H     -364.322    -639.610    -252.570
  H     -365.353    -637.554    -254.583
  H     -366.242    -639.204    -255.907
  H     -364.209    -641.166    -255.374
  H     -362.839    -639.902    -256.993
  H     -364.537    -639.953    -257.547
  P     -368.062    -640.939    -255.166
  C     -370.490    -640.386    -254.299
  O     -369.079    -640.251    -254.139
  O     -368.388    -642.329    -255.602
  O     -368.162    -639.985    -256.464
  H     -368.779    -640.432    -257.083
  H     -370.990    -639.856    -253.515
  H     -370.756    -641.421    -254.256
  H     -370.782    -639.982    -255.246

 6  7  8  9  10  11  12  13  14  15  16  26  31  32  33  34  35 0
 6-311+G(2d,p)
 ****
 36  37 0
 6-311+G(2d,p)
 ****
 1  2  3  4  5  17  18  19  20  21  22  23  24  25 0
 3-21G
 ****
 27  28  29  30  38  39  40  41  42  43  44  45 0
 3-21G
 ****


