%nproc=1
%NoSave
%Mem=1900MB
#P OB98/GEN NMR

erre ene a

0 1
  C     -345.295      43.343     -24.437
  O     -346.358      43.647     -25.315
  H     -344.991      44.261     -23.927
  H     -344.439      42.956     -24.995
  H     -345.612      42.616     -23.686
  P     -346.990      42.462     -26.193
  C     -348.081      44.083     -27.893
  O     -348.290      43.124     -26.869
  C     -349.287      44.130     -28.826
  O     -349.558      42.833     -29.398
  C     -350.598      44.535     -28.160
  O     -350.677      45.914     -27.843
  C     -351.578      44.133     -29.246
  O     -351.542      45.098     -30.311
  C     -350.983      42.778     -29.695
  N     -351.604      41.640     -29.021
  C     -352.950      41.395     -29.315
  O     -353.564      42.119     -30.096
  N     -353.585      40.349     -28.689
  C     -352.939      39.627     -27.826
  N     -353.620      38.610     -27.231
  C     -351.527      39.862     -27.472
  C     -350.927      40.869     -28.100
  O     -347.224      41.171     -25.478
  O     -346.008      42.327     -27.449
  H     -351.980      44.689     -31.080
  H     -346.349      41.597     -28.021
  H     -351.043      39.250     -26.725
  H     -349.889      41.109     -27.889
  H     -351.084      42.647     -30.779
  H     -352.610      44.076     -28.896
  H     -350.792      43.920     -27.272
  H     -349.035      44.803     -29.657
  H     -354.587      38.472     -27.493
  H     -347.173      43.809     -28.439
  H     -353.220      38.045     -26.493
  H     -347.944      45.077     -27.455
  P     -351.208      46.295     -26.374
  C     -353.243      47.685     -27.239
  O     -352.013      47.669     -26.529
  O     -349.871      46.708     -25.604
  O     -351.966      45.213     -25.673
  H     -349.542      45.968     -25.059
  H     -353.639      48.679     -27.243
  H     -353.938      47.026     -26.763
  H     -353.078      47.363     -28.246

 6  7  8  9  10  11  12  13  14  15  16  26  30  31  32  33  35 0
 6-311+G(2d,p)
 ****
 37  38 0
 6-311+G(2d,p)
 ****
 1  2  3  4  5  17  18  19  20  21  22  23  24  25 0
 3-21G
 ****
 27  28  29  34  36  39  40  41  42  43  44  45  46 0
 3-21G
 ****


