%nproc=1
%NoSave
%Mem=1900MB
#P OB98/GEN NMR

erre ene a

0 1
  C       66.545       6.030      37.563
  O       67.895       6.306      37.221
  P       68.493       7.737      37.634
  C       67.917       8.820      35.356
  O       67.702       8.829      36.761
  C       68.297      10.210      34.854
  O       68.629      10.125      33.441
  C       67.185      11.261      35.007
  O       67.756      12.485      35.491
  C       66.726      11.500      33.578
  O       66.149      12.791      33.412
  C       68.038      11.289      32.825
  N       68.199      13.594      28.335
  C       68.646      14.030      29.566
  N       69.155      15.281      29.614
  N       68.596      13.308      30.656
  C       68.090      12.066      30.452
  C       67.623      11.517      29.281
  C       67.631      12.349      28.096
  O       67.167      12.054      26.997
  N       67.205      10.224      29.467
  C       67.413       9.992      30.748
  N       67.904      11.095      31.400
  O       69.954       7.714      36.981
  O       68.557       8.002      39.098
  H       65.562      12.942      34.178
  H       70.625       7.879      37.671
  H       68.245      14.197      27.532
  H       67.195       9.058      31.252
  H       68.714      12.139      32.985
  H       65.978      10.746      33.310
  H       69.255      15.875      28.808
  H       66.362      10.953      35.660
  H       69.508      15.609      30.504
  H       69.207      10.532      35.378
  H       66.999       8.496      34.854
  H       68.715       8.107      35.125
  P       67.221      12.996      36.917
  C       64.804      13.718      36.265
  O       65.637      12.763      36.896
  O       67.376      14.585      36.823
  O       67.953      12.416      38.082
  H       67.457      14.973      37.715
  H       65.380      14.460      35.703
  H       64.213      14.234      37.026
  H       64.128      13.201      35.579
  H       66.286       5.047      37.228
  H       65.904       6.747      37.094
  H       66.427       6.087      38.625

 3  4  5  6  7  8  9  10  11  12  23  26  30  31  33  0
 6-311+G(2d,p)
 ****
 35  36  37  38 0
 6-311+G(2d,p)
 ****
 1  2  13  14  15  16  17  18  19  20  21  22  24  25  27  28  29 0
 3-21G
 ****
 32  34  39  40  41  42  43  44  45  46  47  48  49 0
 3-21G
 ****


