%nproc=1
%NoSave
%Mem=1900MB
#P OB98/GEN NMR

erre ene a

0 1
  C      851.903    -819.046    -465.344
  O      851.162    -819.655    -464.286
  P      850.031    -820.736    -464.670
  C      849.840    -823.298    -464.880
  O      850.678    -822.198    -464.529
  C      850.514    -824.635    -464.524
  O      851.688    -824.816    -465.381
  C      851.034    -824.729    -463.079
  O      850.154    -825.240    -462.089
  C      852.149    -825.793    -463.230
  O      851.577    -827.104    -463.197
  C      852.704    -825.519    -464.628
  N      857.658    -825.469    -463.286
  C      856.709    -826.406    -463.179
  N      855.412    -826.345    -463.561
  C      855.131    -825.148    -464.111
  C      856.007    -824.094    -464.296
  C      857.319    -824.267    -463.844
  N      858.308    -823.309    -463.962
  N      855.362    -823.031    -464.896
  C      854.115    -823.445    -465.053
  N      853.932    -824.724    -464.614
  O      849.288    -820.486    -465.929
  O      849.067    -820.675    -463.401
  H      850.926    -827.135    -463.927
  H      848.143    -820.775    -463.700
  H      857.019    -827.353    -462.724
  H      853.324    -822.843    -465.484
  H      852.932    -826.434    -465.171
  H      852.885    -825.735    -462.429
  H      851.477    -823.788    -462.761
  H      849.816    -825.464    -464.732
  H      849.636    -823.275    -465.950
  H      859.210    -823.508    -463.563
  H      858.048    -822.391    -464.308
  H      848.893    -823.168    -464.366
  P      849.625    -824.281    -460.897
  C      847.684    -822.525    -460.766
  O      848.492    -823.365    -461.563
  O      850.687    -823.524    -460.151
  O      848.788    -825.289    -459.984
  H      847.969    -825.620    -460.407
  H      847.139    -821.831    -461.414
  H      848.306    -821.936    -460.068
  H      846.967    -823.123    -460.184
  H      852.611    -818.357    -464.933
  H      851.233    -818.524    -465.994
  H      852.421    -819.801    -465.897

 3  4  5  6  7  8  9  10  11  12  22  25  29  30  31  32 0
 6-311+G(2d,p)
 ****
 33  36  37 0
 6-311+G(2d,p)
 ****
 1  2  13  14  15  16  17  18  19  20  21  23  24  26 0
 3-21G
 ****
 27  28  34  35  38  39  40  41  42  43  44  45  46  47  48 0
 3-21G
 ****


