%nproc=1
%NoSave
%Mem=1900MB
#P OB98/GEN NMR

erre ene a

0 1
  C      594.037      87.390      -5.857
  O      592.952      87.875      -5.080
  P      591.510      87.162      -5.109
  C      591.326      87.818      -7.607
  O      590.721      87.856      -6.329
  C      590.296      88.160      -8.692
  O      590.927      88.014      -9.992
  C      589.049      87.281      -8.678
  O      587.937      88.105      -9.063
  C      589.345      86.245      -9.743
  O      588.166      85.629     -10.257
  C      590.119      87.097     -10.755
  N      590.942      86.293     -11.653
  C      590.364      85.868     -12.862
  O      589.200      86.141     -13.134
  N      591.131      85.128     -13.730
  C      592.338      84.773     -13.392
  N      593.080      84.096     -14.303
  C      592.942      85.104     -12.077
  C      592.204      85.871     -11.286
  O      590.786      87.165      -3.816
  O      591.802      85.706      -5.700
  H      588.377      85.264     -11.136
  H      592.088      85.061      -5.001
  H      593.932      84.757     -11.828
  H      592.568      86.196     -10.317
  H      589.424      87.711     -11.346
  H      589.984      85.454      -9.322
  H      588.838      86.842      -7.687
  H      590.022      89.221      -8.585
  H      592.695      84.038     -15.248
  H      591.696      86.804      -7.787
  H      594.088      84.070     -14.241
  H      592.174      88.505      -7.636
  P      586.504      87.823      -8.397
  C      585.349      86.931     -10.548
  O      585.389      87.926      -9.544
  O      586.262      89.188      -7.576
  O      586.423      86.647      -7.477
  H      585.659      89.000      -6.830
  H      584.533      87.157     -11.234
  H      585.168      85.956     -10.097
  H      586.291      86.917     -11.111
  H      594.897      88.005      -5.692
  H      593.773      87.417      -6.894
  H      594.258      86.383      -5.571

 3  4  5  6  7  8  9  10  11  12  13  23  27  28  29  30  32 0
 6-311+G(2d,p)
 ****
 34  35 0
 6-311+G(2d,p)
 ****
 1  2  14  15  16  17  18  19  20  21  22  24  25  26 0
 3-21G
 ****
 31  33  36  37  38  39  40  41  42  43  44  45  46 0
 3-21G
 ****


