%nproc=1
%NoSave
%Mem=1900MB
#P OB98/GEN NMR

erre ene a

0 1
  C       -8.557     286.874     -36.875
  O       -8.064     287.022     -38.192
  H       -9.236     287.702     -36.660
  H       -7.731     286.900     -36.159
  H       -9.106     285.931     -36.781
  P       -7.022     285.907     -38.695
  C       -5.227     287.782     -38.589
  O       -5.565     286.438     -38.273
  C       -4.579     288.467     -37.388
  O       -5.417     288.343     -36.215
  C       -3.212     287.908     -37.008
  O       -2.189     288.469     -37.812
  C       -3.113     288.334     -35.551
  O       -2.704     289.713     -35.427
  C       -4.560     288.146     -35.061
  N       -4.112     285.396     -30.849
  C       -3.797     286.718     -31.089
  N       -3.226     287.394     -30.064
  N       -4.008     287.324     -32.228
  C       -4.552     286.513     -33.167
  C       -4.925     285.190     -33.048
  C       -4.711     284.544     -31.768
  O       -5.029     283.397     -31.475
  N       -5.459     284.721     -34.221
  C       -5.376     285.737     -35.056
  N       -4.816     286.844     -34.467
  O       -7.026     286.085     -40.287
  O       -7.340     284.507     -38.295
  H       -1.804     289.811     -35.782
  H       -6.847     285.219     -40.704
  H       -3.940     284.993     -29.945
  H       -5.703     285.725     -36.085
  H       -4.841     288.896     -34.312
  H       -2.377     287.743     -35.004
  H       -2.749     286.914     -29.314
  H       -3.209     286.811     -37.068
  H       -2.971     288.358     -30.239
  H       -4.506     289.538     -37.622
  H       -6.142     288.322     -38.861
  H       -4.541     287.790     -39.442
  P       -1.393     287.482     -38.800
  C        0.883     288.445     -37.983
  O        0.070     287.294     -38.172
  O       -1.123     288.394     -40.090
  O       -2.121     286.223     -39.140
  H       -0.895     287.830     -40.854
  H        1.821     288.153     -37.559
  H        0.389     289.126     -37.322
  H        1.051     288.922     -38.926

 6  7  8  9  10  11  12  13  14  15  26  29  33  34 0
 6-311+G(2d,p)
 ****
 36  38  39  40  41 0
 6-311+G(2d,p)
 ****
 1  2  3  4  5  16  17  18  19  20  21  22  23  24  25 0
 3-21G
 ****
 27  28  30  31  32  35  37  42  43  44  45  46  47 0
 3-21G
 ****
 48  49 0
 3-21G
 ****


