%nproc=1
%NoSave
%Mem=1900MB
#P OB98/GEN NMR

erre ene a

0 1
  C      -75.787    -150.019     -72.635
  O      -76.343    -149.155     -73.606
  H      -74.753    -150.237     -72.911
  H      -76.348    -150.957     -72.599
  H      -75.798    -149.542     -71.652
  P      -77.862    -148.694     -73.371
  C      -77.169    -146.210     -73.698
  O      -77.800    -147.174     -72.865
  C      -77.142    -144.859     -72.989
  O      -76.255    -144.923     -71.848
  C      -76.612    -143.721     -73.852
  O      -77.579    -143.239     -74.765
  C      -76.220    -142.707     -72.789
  O      -77.349    -141.935     -72.362
  C      -75.719    -143.596     -71.646
  N      -71.643    -142.509     -68.773
  C      -72.968    -142.426     -68.526
  N      -73.993    -142.748     -69.343
  C      -73.535    -143.225     -70.512
  C      -72.215    -143.371     -70.904
  C      -71.237    -142.990     -69.971
  N      -69.888    -143.050     -70.229
  N      -72.143    -143.855     -72.195
  C      -73.395    -144.009     -72.573
  N      -74.271    -143.644     -71.588
  O      -78.290    -149.514     -72.066
  O      -78.784    -148.948     -74.515
  H      -77.909    -142.538     -71.835
  H      -78.812    -150.296     -72.329
  H      -73.241    -142.041     -67.548
  H      -73.716    -144.369     -73.542
  H      -76.071    -143.249     -70.666
  H      -75.469    -142.015     -73.170
  H      -75.706    -144.042     -74.382
  H      -78.152    -144.634     -72.624
  H      -77.730    -146.115     -74.633
  H      -76.153    -146.548     -73.924
  H      -69.246    -142.696     -69.540
  H      -69.579    -143.299     -71.161
  P      -77.155    -143.122     -76.306
  C      -79.121    -144.329     -77.522
  O      -77.775    -144.387     -77.068
  O      -75.582    -143.416     -76.295
  O      -77.468    -141.807     -76.937
  H      -75.137    -142.870     -76.971
  H      -79.374    -145.249     -78.006
  H      -79.229    -143.520     -78.214
  H      -79.773    -144.174     -76.688

 6  7  8  9  10  11  12  13  14  15  25  28  32  33  34  35 0
 6-311+G(2d,p)
 ****
 36  37  40 0
 6-311+G(2d,p)
 ****
 1  2  3  4  5  16  17  18  19  20  21  22  23  24 0
 3-21G
 ****
 26  27  29  30  31  38  39 41  42  43  44  45  46  47  48 0
 3-21G
 ****


