%nproc=1
%NoSave
%Mem=1900MB
#P OB98/GEN NMR

erre ene a

0 1
  C      -17.406     310.005    -258.874
  O      -16.491     310.860    -259.581
  P      -15.151     311.292    -258.803
  C      -13.756     311.189    -260.986
  O      -14.147     311.967    -259.861
  C      -12.851     312.001    -261.928
  O      -13.621     313.019    -262.632
  C      -11.692     312.706    -261.223
  O      -10.577     312.724    -262.122
  C      -12.217     314.122    -261.065
  O      -11.162     315.050    -260.847
  C      -12.979     314.286    -262.383
  N      -14.032     319.033    -263.956
  C      -12.973     318.220    -264.175
  N      -12.752     316.970    -263.706
  C      -13.802     316.567    -262.954
  C      -14.941     317.287    -262.640
  C      -15.039     318.589    -263.166
  N      -16.095     319.424    -262.920
  N      -15.766     316.550    -261.799
  C      -15.123     315.404    -261.625
  N      -13.952     315.359    -262.328
  O      -14.460     309.893    -258.457
  O      -15.412     312.093    -257.566
  H      -10.528     315.001    -261.594
  H      -14.534     309.702    -257.501
  H      -12.188     318.635    -264.822
  H      -15.472     314.594    -261.006
  H      -12.307     314.510    -263.228
  H      -12.902     314.176    -260.205
  H      -11.405     312.259    -260.269
  H      -12.454     311.297    -262.690
  H      -14.651     310.855    -261.537
  H      -16.076     320.358    -263.319
  H      -16.830     319.117    -262.295
  H      -13.260     310.275    -260.639
  P       -9.362     311.732    -261.766
  C       -9.135     310.670    -264.123
  O       -8.557     311.504    -263.141
  O      -10.080     310.325    -261.499
  O       -8.536     312.180    -260.592
  H       -9.536     309.782    -260.901
  H       -8.959     311.119    -265.102
  H      -10.216     310.535    -263.979
  H       -8.650     309.686    -264.082
  H      -18.250     309.793    -259.497
  H      -17.735     310.495    -257.982
  H      -16.914     309.090    -258.617

 3  4  5  6  7  8  9  10  11  12  22  25  29  30  31  32 0
 6-311+G(2d,p)
 ****
 33  36  37 0
 6-311+G(2d,p)
 ****
 1  2  13  14  15  16  17  18  19  20  21  23  24  26 0
 3-21G
 ****
 27  28  34  35  38  39  40  41  42  43  44  45  46  47  48 0
 3-21G
 ****


