%nproc=1
%NoSave
%Mem=1900MB
#P OB98/GEN NMR

erre ene a

0 1
  C     -173.005     268.094    -263.666
  O     -171.743     268.151    -264.299
  P     -171.524     268.738    -265.770
  C     -169.208     269.574    -264.946
  O     -169.950     268.963    -265.994
  C     -167.694     269.613    -265.225
  O     -167.144     268.291    -265.061
  C     -167.440     270.009    -266.684
  O     -167.432     271.373    -267.063
  C     -166.204     269.218    -267.096
  O     -165.005     269.996    -267.020
  C     -166.158     268.071    -266.082
  N     -164.340     264.443    -269.127
  C     -163.671     265.507    -268.549
  N     -162.415     265.730    -268.993
  N     -164.206     266.286    -267.638
  C     -165.499     265.991    -267.375
  C     -166.260     264.959    -267.866
  C     -165.648     264.081    -268.839
  O     -166.228     263.176    -269.439
  N     -167.559     265.015    -267.425
  C     -167.601     266.112    -266.690
  N     -166.381     266.759    -266.659
  O     -172.473     269.809    -266.214
  O     -171.814     267.436    -266.678
  H     -165.233     270.918    -267.246
  H     -172.238     267.739    -267.504
  H     -163.905     263.925    -269.883
  H     -168.480     266.488    -266.196
  H     -165.186     268.037    -265.577
  H     -166.286     268.882    -268.139
  H     -162.031     265.245    -269.790
  H     -168.258     269.576    -267.275
  H     -161.965     266.597    -268.716
  H     -167.179     270.247    -264.498
  H     -169.414     269.017    -264.031
  H     -169.567     270.591    -264.792
  P     -168.108     272.002    -268.365
  C     -168.512     274.441    -267.715
  O     -167.698     273.545    -268.451
  O     -169.671     272.059    -268.009
  O     -167.895     271.225    -269.624
  H     -170.197     272.096    -268.837
  H     -168.345     275.459    -268.073
  H     -168.239     274.391    -266.659
  H     -169.573     274.192    -267.830
  H     -172.897     267.663    -262.693
  H     -173.670     267.493    -264.250
  H     -173.404     269.083    -263.576

 3  4  5  6  7  8  9  10  11  12  23  26  30  31 0
 6-311+G(2d,p)
 ****
 33  35  36  37  38 0
 6-311+G(2d,p)
 ****
 1  2  13  14  15  16  17  18  19  20  21  22  24  25 0
 3-21G
 ****
 27  28  29  32  34  39  40  41  42  43  44  45  46  47  48  49 0
 3-21G
 ****


