%nproc=1
%NoSave
%Mem=1900MB
#P OB98/GEN NMR

erre ene a

0 1
  C     -541.939      17.146     -89.507
  O     -540.677      16.596     -89.184
  H     -542.525      17.277     -88.596
  H     -541.787      18.127     -89.971
  H     -542.474      16.502     -90.207
  P     -540.637      15.046     -88.771
  C     -538.183      14.686     -89.543
  O     -539.095      14.700     -88.453
  C     -536.995      15.604     -89.259
  O     -537.490      16.963     -89.088
  C     -536.198      15.232     -87.995
  O     -534.806      15.451     -88.254
  C     -536.670      16.254     -86.968
  O     -535.712      16.490     -85.942
  C     -536.930      17.466     -87.862
  N     -537.960      19.744     -83.425
  C     -536.872      19.087     -83.873
  N     -536.654      18.555     -85.093
  C     -537.693      18.812     -85.909
  C     -538.874      19.470     -85.608
  C     -538.997      19.939     -84.280
  N     -540.138      20.545     -83.801
  N     -539.716      19.486     -86.701
  C     -539.066      18.827     -87.638
  N     -537.839      18.398     -87.208
  O     -540.905      14.311     -90.168
  O     -541.618      14.631     -87.724
  H     -535.992      17.267     -85.424
  H     -541.868      14.216     -90.308
  H     -536.063      18.968     -83.146
  H     -539.448      18.605     -88.629
  H     -536.009      18.017     -88.102
  H     -537.599      15.900     -86.504
  H     -536.354      14.200     -87.655
  H     -536.338      15.610     -90.138
  H     -538.696      15.041     -90.447
  H     -540.178      20.747     -82.817
  H     -540.951      20.598     -84.393
  H     -537.835      13.657     -89.711
  P     -533.985      14.242     -88.920
  C     -532.403      15.437     -90.612
  O     -532.541      14.786     -89.354
  O     -534.733      14.019     -90.322
  O     -533.966      12.994     -88.099
  H     -534.701      13.079     -90.574
  H     -531.385      15.737     -90.749
  H     -533.036      16.299     -90.639
  H     -532.684      14.764     -91.395

 6  7  8  9  10  11  12  13  14  15  25  28  32  33  34  35 0
 6-311+G(2d,p)
 ****
 36  39  40 0
 6-311+G(2d,p)
 ****
 1  2  3  4  5  16  17  18  19  20  21  22  23  24 0
 3-21G
 ****
 26  27  29  30  31  37  38  41  42  43  44  45  46  47 0
 3-21G
 ****
 48 0
 3-21G
 ****


