%nproc=1
%NoSave
%Mem=1900MB
#P OB98/GEN NMR

erre ene a

0 1
  C      269.108     599.560    -662.517
  O      270.123     600.469    -662.894
  H      268.653     599.878    -661.572
  H      268.334     599.551    -663.289
  H      269.519     598.555    -662.409
  P      271.340     600.665    -661.869
  C      273.359     601.331    -663.353
  O      272.311     601.781    -662.501
  C      274.560     602.267    -663.236
  O      274.159     603.588    -663.679
  C      275.136     602.396    -661.812
  O      276.521     602.020    -661.805
  C      275.038     603.874    -661.499
  O      276.180     604.380    -660.806
  C      274.881     604.526    -662.873
  N      275.423     609.588    -663.094
  C      276.184     608.584    -663.580
  N      275.930     607.259    -663.581
  C      274.730     607.001    -663.026
  C      273.839     607.925    -662.504
  C      274.234     609.271    -662.533
  N      273.481     610.288    -661.983
  N      272.717     607.281    -662.008
  C      272.950     605.996    -662.187
  N      274.172     605.780    -662.783
  O      272.175     599.306    -662.022
  O      270.942     600.905    -660.453
  H      276.182     603.970    -659.922
  H      272.378     598.943    -661.145
  H      277.133     608.881    -664.023
  H      272.311     605.187    -661.862
  H      275.854     604.711    -663.352
  H      274.153     604.049    -660.873
  H      274.585     601.801    -661.077
  H      275.337     601.916    -663.932
  H      273.008     601.327    -664.388
  H      273.893     611.203    -661.950
  H      272.643     610.040    -661.474
  H      273.631     600.305    -663.075
  P      276.841     600.446    -661.673
  C      279.440     600.532    -661.529
  O      278.208     600.301    -660.853
  O      277.267     600.040    -663.166
  O      275.690     599.633    -661.177
  H      277.076     599.097    -663.329
  H      280.252     600.396    -660.846
  H      279.457     601.532    -661.908
  H      279.537     599.841    -662.340

 6  7  8  9  10  11  12  13  14  15  25  28  32  33  34  35 0
 6-311+G(2d,p)
 ****
 36  39  40 0
 6-311+G(2d,p)
 ****
 1  2  3  4  5  16  17  18  19  20  21  22  23  24 0
 3-21G
 ****
 26  27  29  30  31  37  38  41  42  43  44  45  46  47  48 0
 3-21G
 ****


