%nproc=1
%NoSave
%Mem=1900MB
#P OB98/GEN NMR

erre ene a

0 1
  C     -198.794    -222.423     109.485
  O     -199.786    -222.086     110.432
  H     -199.282    -222.666     108.538
  H     -198.238    -223.299     109.826
  H     -198.107    -221.589     109.319
  P     -199.341    -221.410     111.814
  C     -199.015    -218.935     111.172
  O     -199.871    -219.896     111.770
  C     -199.758    -217.617     110.930
  O     -198.780    -216.556     110.733
  C     -200.670    -217.635     109.693
  O     -201.770    -216.754     109.960
  C     -199.765    -217.040     108.633
  O     -200.499    -216.590     107.518
  C     -199.042    -215.963     109.447
  N     -197.818    -215.498     108.795
  C     -197.862    -214.237     108.219
  O     -198.875    -213.534     108.209
  N     -196.716    -213.813     107.605
  C     -195.574    -214.544     107.464
  O     -194.583    -214.128     106.876
  C     -195.598    -215.891     108.055
  C     -196.700    -216.300     108.687
  O     -197.900    -221.556     112.171
  O     -200.298    -222.081     112.908
  H     -201.067    -215.829     107.769
  H     -199.840    -222.128     113.770
  H     -196.729    -212.895     107.191
  H     -194.710    -216.500     107.952
  H     -196.750    -217.287     109.135
  H     -199.692    -215.094     109.602
  H     -199.051    -217.788     108.272
  H     -201.032    -218.633     109.439
  H     -200.324    -217.364     111.834
  H     -198.664    -219.343     110.217
  H     -198.151    -218.759     111.822
  P     -203.294    -217.199     109.727
  C     -204.224    -218.295     111.865
  O     -204.084    -217.088     111.120
  O     -203.451    -218.516     109.038
  O     -203.930    -216.021     108.847
  H     -204.657    -216.375     108.302
  H     -204.764    -218.097     112.767
  H     -203.255    -218.680     112.106
  H     -204.758    -219.015     111.281

 6  7  8  9  10  11  12  13  14  15  16  26  31  32  33  34  35 0
 6-311+G(2d,p)
 ****
 36  37 0
 6-311+G(2d,p)
 ****
 1  2  3  4  5  17  18  19  20  21  22  23  24  25 0
 3-21G
 ****
 27  28  29  30  38  39  40  41  42  43  44  45 0
 3-21G
 ****


