%nproc=1
%NoSave
%Mem=1900MB
#P OB98/GEN NMR

erre ene a

0 1
  C     -128.665    -355.946     102.861
  O     -129.252    -354.682     102.633
  H     -128.954    -356.323     103.844
  H     -129.019    -356.643     102.097
  H     -127.576    -355.873     102.794
  P     -128.890    -353.517     103.676
  C     -129.579    -351.586     102.089
  O     -129.823    -352.259     103.317
  C     -130.884    -351.024     101.534
  O     -131.678    -352.130     101.026
  C     -131.737    -350.252     102.552
  O     -131.973    -348.918     102.094
  C     -133.064    -350.993     102.576
  O     -134.196    -350.123     102.643
  C     -133.049    -351.790     101.277
  N     -137.839    -353.534     101.238
  C     -137.295    -352.400     100.743
  N     -135.997    -352.044     100.689
  C     -135.216    -353.015     101.198
  C     -135.620    -354.233     101.718
  C     -137.005    -354.474     101.744
  N     -137.559    -355.606     102.300
  N     -134.531    -354.963     102.152
  C     -133.492    -354.182     101.938
  N     -133.861    -352.986     101.382
  O     -127.430    -353.049     103.210
  O     -128.906    -353.926     105.111
  H     -134.986    -350.679     102.485
  H     -126.841    -352.995     103.983
  H     -138.001    -351.679     100.339
  H     -132.470    -354.407     102.212
  H     -133.414    -351.201     100.426
  H     -133.087    -351.656     103.450
  H     -131.282    -350.228     103.550
  H     -130.645    -350.381     100.675
  H     -129.156    -352.290     101.364
  H     -138.564    -355.644     102.380
  H     -136.955    -356.261     102.775
  H     -128.854    -350.786     102.261
  P     -131.606    -347.728     103.117
  C     -129.961    -346.614     101.436
  O     -131.125    -346.474     102.239
  O     -130.251    -348.246     103.793
  O     -132.669    -347.451     104.125
  H     -130.153    -347.859     104.688
  H     -129.774    -345.698     100.916
  H     -130.109    -347.402     100.728
  H     -129.123    -346.848     102.060

 6  7  8  9  10  11  12  13  14  15  25  28  32  33  34  35 0
 6-311+G(2d,p)
 ****
 36  39  40 0
 6-311+G(2d,p)
 ****
 1  2  3  4  5  16  17  18  19  20  21  22  23  24 0
 3-21G
 ****
 26  27  29  30  31  37  38  41  42  43  44  45  46  47  48 0
 3-21G
 ****


