%nproc=1
%NoSave
%Mem=1900MB
#P OB98/GEN NMR

erre ene a

0 1
  C     -366.230      76.026     162.965
  O     -366.368      74.675     162.542
  P     -366.723      73.577     163.652
  C     -368.160      72.405     161.843
  O     -367.173      72.254     162.860
  C     -368.406      71.081     161.128
  O     -367.220      70.736     160.357
  C     -368.708      69.901     162.058
  O     -369.791      69.131     161.515
  C     -367.450      69.048     161.974
  O     -367.713      67.681     162.275
  C     -367.028      69.319     160.531
  N     -364.121      65.628     158.672
  C     -365.495      65.785     158.614
  N     -366.188      64.787     158.028
  N     -366.125      66.823     159.096
  C     -365.298      67.756     159.624
  C     -363.928      67.721     159.728
  C     -363.246      66.539     159.247
  O     -362.045      66.302     159.353
  N     -363.441      68.869     160.314
  C     -364.515      69.594     160.563
  N     -365.669      68.941     160.209
  O     -368.088      74.132     164.277
  O     -365.690      73.380     164.711
  H     -368.163      67.654     163.137
  H     -367.995      74.239     165.246
  H     -363.690      64.800     158.304
  H     -364.511      70.573     161.022
  H     -367.696      68.793     159.834
  H     -366.714      69.428     162.691
  H     -365.764      63.972     157.608
  H     -368.946      70.191     163.090
  H     -367.194      64.891     157.956
  H     -369.220      71.224     160.405
  H     -367.815      73.154     161.117
  H     -369.089      72.763     162.306
  P     -370.810      68.489     162.584
  C     -372.623      68.751     160.730
  O     -372.045      67.932     161.732
  O     -371.411      69.772     163.336
  O     -370.165      67.523     163.528
  H     -371.723      69.528     164.225
  H     -372.030      69.659     160.545
  H     -373.622      69.047     161.051
  H     -372.699      68.179     159.803
  H     -365.994      76.641     162.122
  H     -365.444      76.095     163.688
  H     -367.148      76.358     163.403

 3  4  5  6  7  8  9  10  11  12  23  26  30  31  33  0
 6-311+G(2d,p)
 ****
 35  36  37  38 0
 6-311+G(2d,p)
 ****
 1  2  13  14  15  16  17  18  19  20  21  22  24  25  27  28  29 0
 3-21G
 ****
 32  34  39  40  41  42  43  44  45  46  47  48  49 0
 3-21G
 ****


