%nproc=1
%NoSave
%Mem=1900MB
#P OB98/GEN NMR

erre ene a

0 1
  C      206.056    -195.165    -220.198
  O      207.230    -194.677    -220.819
  H      205.789    -196.141    -220.614
  H      206.247    -195.278    -219.129
  H      205.232    -194.460    -220.339
  P      207.148    -194.413    -222.399
  C      207.494    -191.848    -222.566
  O      206.572    -192.926    -222.575
  C      207.594    -191.229    -223.957
  O      208.229    -192.151    -224.866
  C      206.254    -190.882    -224.598
  O      205.736    -189.656    -224.105
  C      206.659    -190.768    -226.058
  O      207.285    -189.490    -226.292
  C      207.696    -191.895    -226.191
  N      207.484    -194.985    -230.263
  C      208.189    -193.860    -230.021
  N      208.210    -193.102    -228.903
  C      207.406    -193.626    -227.965
  C      206.640    -194.776    -228.055
  C      206.692    -195.472    -229.274
  N      205.910    -196.587    -229.535
  N      205.931    -194.986    -226.889
  C      206.249    -193.968    -226.117
  N      207.141    -193.124    -226.720
  O      205.929    -195.352    -222.853
  O      208.394    -194.718    -223.160
  H      206.596    -188.814    -226.153
  H      206.284    -196.191    -223.199
  H      208.820    -193.517    -230.835
  H      205.857    -193.800    -225.123
  H      208.538    -191.607    -226.828
  H      205.813    -190.844    -226.747
  H      205.532    -191.698    -224.489
  H      208.231    -190.339    -223.885
  H      208.481    -192.213    -222.262
  H      205.680    -196.700    -230.518
  H      205.162    -196.736    -228.870
  H      207.153    -191.100    -221.843
  P      204.142    -189.476    -224.074
  C      203.624    -190.224    -221.653
  O      203.581    -190.563    -223.032
  O      203.693    -190.049    -225.499
  O      203.662    -188.081    -223.875
  H      203.182    -189.369    -225.980
  H      203.223    -191.030    -221.075
  H      203.044    -189.341    -221.485
  H      204.638    -190.045    -221.361

 6  7  8  9  10  11  12  13  14  15  25  28  32  33  34  35 0
 6-311+G(2d,p)
 ****
 36  39  40 0
 6-311+G(2d,p)
 ****
 1  2  3  4  5  16  17  18  19  20  21  22  23  24 0
 3-21G
 ****
 26  27  29  30  31  37  38  41  42  43  44  45  46  47  48 0
 3-21G
 ****


