%nproc=1
%NoSave
%Mem=1900MB
#P OB98/GEN NMR

erre ene a

0 1
  C        2.292    -895.160     577.412
  O        1.915    -895.110     578.798
  P        2.559    -893.960     579.707
  C        4.290    -895.700     580.591
  O        3.375    -894.650     580.898
  C        4.979    -896.200     581.858
  O        5.779    -895.170     582.492
  C        3.998    -896.680     582.948
  O        3.553    -898.020     582.708
  C        4.876    -896.640     584.190
  O        5.700    -897.800     584.236
  C        5.725    -895.390     583.930
  N        6.266    -892.120     587.771
  C        7.024    -893.230     587.414
  N        8.078    -893.510     588.220
  N        6.761    -893.980     586.408
  C        5.684    -893.590     585.684
  C        4.851    -892.510     585.928
  C        5.144    -891.680     587.066
  O        4.502    -890.700     587.435
  N        3.853    -892.430     584.972
  C        4.091    -893.430     584.150
  N        5.172    -894.200     584.561
  O        1.274    -893.330     580.468
  O        3.300    -892.900     578.941
  H        5.098    -898.580     584.137
  H        1.428    -892.410     580.691
  H        6.509    -891.570     588.566
  H        3.507    -893.670     583.277
  H        6.744    -895.490     584.281
  H        4.289    -896.620     585.107
  H        8.369    -892.920     588.990
  H        3.146    -895.980     583.051
  H        8.654    -894.290     587.961
  H        5.618    -897.040     581.589
  H        5.049    -895.350     579.875
  H        3.740    -896.510     580.084
  P        2.086    -898.230     582.072
  C        0.919    -899.130     584.194
  O        1.413    -899.410     582.902
  O        2.433    -898.880     580.640
  O        1.293    -896.970     581.923
  H        1.758    -898.640     580.003
  H        0.346    -900.000     584.555
  H        0.264    -898.260     584.192
  H        1.754    -898.970     584.902
  H        1.787    -895.973     576.934
  H        3.350    -895.302     577.335
  H        2.020    -894.242     576.935

 3  4  5  6  7  8  9  10  11  12  23  26  30  31 0
 6-311+G(2d,p)
 ****
 33  35  36  37  38 0
 6-311+G(2d,p)
 ****
 1  2  13  14  15  16  17  18  19  20  21  22  24  25 0
 3-21G
 ****
 27  28  29  32  34  39  40  41  42  43  44  45  46  47  48  49 0
 3-21G
 ****


