%nproc=1
%NoSave
%Mem=1900MB
#P OB98/GEN NMR

erre ene a

0 1
  C      -76.860     128.778     163.014
  O      -78.035     129.090     163.770
  P      -77.899     130.205     164.918
  C      -77.227     130.098     167.448
  O      -77.292     129.441     166.189
  C      -77.263     129.069     168.577
  O      -78.609     128.573     168.772
  C      -76.410     127.837     168.323
  O      -75.029     128.118     168.485
  C      -76.990     126.868     169.345
  O      -76.444     127.128     170.647
  C      -78.489     127.238     169.319
  N      -79.301     126.282     168.576
  C      -79.476     125.039     169.177
  O      -78.965     124.735     170.255
  N      -80.245     124.144     168.485
  C      -80.818     124.356     167.264
  O      -81.506     123.518     166.695
  C      -80.557     125.670     166.656
  C      -79.821     126.559     167.329
  O      -79.433     130.450     165.293
  O      -77.155     131.416     164.467
  H      -79.972     129.642     165.237
  H      -76.534     128.090     170.798
  H      -80.395     123.242     168.909
  H      -80.974     125.863     165.676
  H      -79.616     127.534     166.896
  H      -78.882     127.292     170.343
  H      -76.774     125.822     169.102
  H      -76.594     127.459     167.309
  H      -76.941     129.567     169.501
  H      -78.074     130.781     167.557
  H      -76.311     130.696     167.487
  P      -74.156     128.267     167.142
  C      -73.847     126.786     165.011
  O      -74.349     126.904     166.322
  O      -72.669     128.162     167.727
  O      -74.434     129.522     166.382
  H      -72.568     127.453     168.382
  H      -73.760     125.724     164.762
  H      -72.862     127.249     164.915
  H      -74.541     127.256     164.310
  H      -77.091     128.026     162.289
  H      -76.098     128.417     163.672
  H      -76.512     129.659     162.515

 3  4  5  6  7  8  9  10  11  12  13  24  28  29  30  31  32 0
 6-311+G(2d,p)
 ****
 33  34 0
 6-311+G(2d,p)
 ****
 1  2  14  15  16  17  18  19  20  21  22  23  25  26  27 0
 3-21G
 ****
 35  36  37  38  39  40  41  42  43  44  45 0
 3-21G
 ****


