%nproc=1
%NoSave
%Mem=1900MB
#P OB98/GEN NMR

erre ene a

0 1
  C       23.129     200.529    -103.595
  O       22.954     201.717    -104.342
  P       21.926     201.753    -105.571
  C       23.731     202.491    -107.245
  O       22.751     201.509    -106.922
  C       24.917     201.847    -107.960
  O       25.515     200.817    -107.141
  C       24.552     201.154    -109.264
  O       24.268     202.078    -110.296
  C       25.787     200.293    -109.491
  O       26.851     201.066    -110.066
  C       26.145     199.878    -108.046
  N       25.754     198.507    -107.750
  C       26.799     197.610    -107.498
  O       27.970     197.969    -107.610
  N       26.482     196.325    -107.132
  C       25.245     195.938    -107.141
  N       24.988     194.672    -106.714
  C       24.129     196.811    -107.561
  C       24.451     198.075    -107.828
  O       21.010     202.930    -105.599
  O       21.093     200.392    -105.418
  H       20.138     200.600    -105.466
  H       26.466     201.539    -110.831
  H       23.123     196.419    -107.616
  H       23.692     198.795    -108.121
  H       27.224     199.982    -107.879
  H       25.593     199.455    -110.167
  H       23.681     200.506    -109.105
  H       25.670     202.625    -108.137
  H       25.776     194.110    -106.417
  H       24.071     202.962    -106.317
  H       24.071     194.387    -106.377
  H       23.276     203.262    -107.871
  P       22.757     202.125    -110.834
  C       23.648     201.256    -113.104
  O       22.667     201.143    -112.096
  O       22.641     203.586    -111.480
  O       21.716     201.910    -109.785
  H       21.747     203.944    -111.322
  H       23.662     200.331    -113.687
  H       24.644     201.421    -112.682
  H       23.393     202.088    -113.771
  H       23.849     200.697    -102.822
  H       23.474     199.749    -104.241
  H       22.196     200.242    -103.157

 3  4  5  6  7  8  9  10  11  12  13  24  27  28  29  30  32 0
 6-311+G(2d,p)
 ****
 34  35 0
 6-311+G(2d,p)
 ****
 1  2  14  15  16  17  18  19  20  21  22  23  25  26 0
 3-21G
 ****
 31  33  36  37  38  39  40  41  42  43  44  45  46 0
 3-21G
 ****


