%nproc=1
%NoSave
%Mem=1900MB
#P OB98/GEN NMR

erre ene a

0 1
  C      -29.509    -561.878     363.747
  O      -28.241    -561.367     364.111
  P      -27.614    -561.652     365.558
  C      -25.671    -560.142     364.823
  O      -26.622    -560.420     365.836
  C      -25.387    -558.638     364.764
  O      -26.620    -557.961     364.437
  C      -24.912    -558.003     366.070
  O      -23.513    -558.114     366.306
  C      -25.266    -556.544     365.815
  O      -24.268    -555.945     364.959
  C      -26.597    -556.655     365.079
  N      -29.335    -553.437     367.966
  C      -28.263    -553.246     367.160
  N      -27.577    -554.159     366.440
  C      -28.134    -555.372     366.573
  C      -29.224    -555.717     367.347
  C      -29.839    -554.687     368.069
  N      -30.949    -554.881     368.870
  N      -29.486    -557.074     367.240
  C      -28.571    -557.528     366.405
  N      -27.736    -556.536     365.969
  O      -27.020    -563.013     365.721
  O      -28.816    -561.382     366.570
  H      -24.443    -554.987     364.947
  H      -28.626    -561.777     367.441
  H      -27.900    -552.221     367.095
  H      -28.474    -558.553     366.090
  H      -26.708    -555.900     364.286
  H      -25.292    -555.947     366.739
  H      -25.487    -558.369     366.925
  H      -24.672    -558.451     363.958
  H      -26.085    -560.466     363.859
  H      -31.395    -554.065     369.245
  H      -31.417    -555.777     368.823
  H      -24.753    -560.709     365.008
  P      -23.024    -558.075     367.835
  C      -20.711    -559.056     367.112
  O      -21.419    -558.035     367.772
  O      -23.603    -559.139     368.700
  O      -23.414    -556.587     368.294
  H      -22.912    -555.881     367.867
  H      -19.655    -558.763     367.042
  H      -21.089    -559.211     366.107
  H      -20.766    -559.985     367.684
  H      -29.742    -561.576     362.747
  H      -30.252    -561.498     364.417
  H      -29.492    -562.946     363.802

 3  4  5  6  7  8  9  10  11  12  22  25  29  30  31  32 0
 6-311+G(2d,p)
 ****
 33  36  37 0
 6-311+G(2d,p)
 ****
 1  2  13  14  15  16  17  18  19  20  21  23  24  26 0
 3-21G
 ****
 27  28  34  35  38  39  40  41  42  43  44  45  46  47  48 0
 3-21G
 ****


