%nproc=1
%NoSave
%Mem=1900MB
#P OB98/GEN NMR

erre ene a

0 1
  C       68.640    -710.888    -723.903
  O       68.438    -712.023    -724.708
  P       69.559    -713.179    -724.781
  C       68.148    -714.593    -723.141
  O       68.806    -714.539    -724.421
  C       67.077    -715.669    -723.124
  O       65.999    -715.368    -724.021
  C       67.581    -717.050    -723.562
  O       68.334    -717.670    -722.531
  C       66.265    -717.751    -723.903
  O       65.657    -718.268    -722.721
  C       65.415    -716.594    -724.486
  N       65.382    -716.645    -725.943
  C       64.178    -717.107    -726.524
  O       63.261    -717.498    -725.767
  N       64.074    -717.191    -727.873
  C       65.082    -716.858    -728.634
  N       64.921    -716.961    -729.974
  C       66.386    -716.366    -728.084
  C       66.449    -716.302    -726.749
  O       70.804    -712.891    -724.015
  O       69.812    -713.326    -726.384
  H       65.602    -717.522    -722.075
  H       70.341    -712.550    -726.717
  H       67.188    -716.111    -728.733
  H       67.339    -715.959    -726.256
  H       64.397    -716.635    -724.081
  H       66.412    -718.575    -724.594
  H       68.188    -716.937    -724.467
  H       66.670    -715.732    -722.097
  H       64.035    -717.311    -730.309
  H       67.666    -713.614    -722.984
  H       65.664    -716.740    -730.646
  H       68.892    -714.736    -722.356
  P       69.753    -718.333    -722.855
  C       71.457    -716.663    -721.857
  O       70.781    -717.879    -721.679
  O       70.241    -718.134    -724.258
  O       69.506    -719.885    -722.556
  H       69.913    -720.416    -723.286
  H       71.834    -716.338    -720.884
  H       70.773    -715.915    -722.273
  H       72.293    -716.809    -722.543
  H       67.794    -710.238    -723.984
  H       69.519    -710.371    -724.229
  H       68.761    -711.191    -722.884

 3  4  5  6  7  8  9  10  11  12  13  23  27  28  29  30  32 0
 6-311+G(2d,p)
 ****
 34  35 0
 6-311+G(2d,p)
 ****
 1  2  14  15  16  17  18  19  20  21  22  24  25  26 0
 3-21G
 ****
 31  33  36  37  38  39  40  41  42  43  44  45  46 0
 3-21G
 ****


