%nproc=1
%NoSave
%Mem=1900MB
#P OB98/GEN NMR

erre ene a

0 1
  C      102.445     165.118    -115.869
  O      102.381     164.019    -114.963
  P      101.867     164.113    -113.455
  C      103.509     162.284    -112.544
  O      102.170     162.717    -112.737
  C      103.607     160.850    -111.999
  O      102.862     160.752    -110.758
  C      102.963     159.860    -112.970
  O      103.698     159.366    -114.073
  C      102.375     158.774    -112.080
  O      103.260     157.667    -111.909
  C      102.157     159.493    -110.747
  N       98.055     158.040    -108.057
  C       99.313     157.475    -108.102
  N       99.494     156.348    -107.380
  N      100.299     157.959    -108.808
  C       99.957     159.035    -109.552
  C       98.741     159.674    -109.605
  C       97.670     159.163    -108.775
  O       96.540     159.633    -108.689
  N       98.762     160.721    -110.491
  C       99.980     160.701    -110.989
  N      100.750     159.698    -110.444
  O      100.500     164.683    -113.275
  O      102.914     165.131    -112.769
  H      102.811     157.007    -111.351
  H      102.416     165.625    -112.087
  H       97.338     157.638    -107.477
  H      100.357     161.388    -111.737
  H      102.570     158.914    -109.913
  H      101.455     158.371    -112.521
  H       98.747     155.860    -106.914
  H      102.099     160.369    -113.418
  H      100.342     155.812    -107.581
  H      104.641     160.599    -111.747
  H      103.974     162.990    -111.850
  H      104.064     162.360    -113.480
  P      103.433     159.704    -115.615
  C      104.536     157.703    -116.774
  O      104.635     159.083    -116.471
  O      103.709     161.277    -115.719
  O      102.065     159.369    -116.111
  H      103.332     161.635    -116.544
  H      105.520     157.333    -117.072
  H      103.837     157.560    -117.602
  H      104.192     157.135    -115.904
  H      102.825     164.782    -116.811
  H      103.093     165.871    -115.471
  H      101.465     165.526    -116.005

 3  4  5  6  7  8  9  10  11  12  23  26  30  31 0
 6-311+G(2d,p)
 ****
 33  35  36  37  38 0
 6-311+G(2d,p)
 ****
 1  2  13  14  15  16  17  18  19  20  21  22  24  25 0
 3-21G
 ****
 27  28  29  32  34  39  40  41  42  43  44  45  46  47  48  49 0
 3-21G
 ****


