%nproc=1
%NoSave
%Mem=1900MB
#P OB98/GEN NMR

erre ene a

0 1
  C      437.654     610.151    -899.364
  O      437.049     610.358    -898.084
  P      435.450     610.517    -898.074
  C      435.750     609.988    -895.544
  O      434.959     610.609    -896.544
  C      436.106     610.980    -894.434
  O      436.675     612.199    -894.944
  C      434.909     611.405    -893.584
  O      434.616     610.398    -892.634
  C      435.434     612.707    -892.954
  O      436.210     612.437    -891.774
  C      436.297     613.277    -894.074
  N      436.263     618.279    -894.984
  C      436.915     617.569    -893.994
  N      437.697     618.284    -893.204
  N      436.826     616.258    -893.884
  C      436.012     615.698    -894.784
  C      435.315     616.284    -895.824
  C      435.417     617.724    -895.964
  O      434.866     618.400    -896.814
  N      434.630     615.353    -896.574
  C      434.813     614.230    -895.914
  N      435.698     614.352    -894.864
  O      434.935     609.059    -898.544
  O      434.936     611.580    -898.984
  H      436.981     611.890    -892.034
  H      434.552     609.115    -899.434
  H      436.344     619.276    -895.054
  H      434.368     613.279    -896.184
  H      437.243     613.703    -893.684
  H      434.612     613.339    -892.644
  H      437.811     619.278    -893.234
  H      434.056     611.605    -894.234
  H      438.210     617.772    -892.454
  H      436.859     610.495    -893.794
  H      436.670     609.572    -895.974
  H      435.179     609.134    -895.144
  P      433.161     609.753    -892.654
  C      433.703     607.393    -891.714
  O      433.084     608.646    -891.504
  O      433.175     608.865    -894.024
  O      432.036     610.726    -892.694
  H      432.328     609.006    -894.504
  H      434.046     607.008    -890.734
  H      434.589     607.502    -892.354
  H      432.985     606.701    -892.144
  H      438.714     610.060    -899.247
  H      437.436     610.983    -900.000
  H      437.265     609.255    -899.801

 3  4  5  6  7  8  9  10  11  12  23  26  30  31 0
 6-311+G(2d,p)
 ****
 33  35  36  37  38 0
 6-311+G(2d,p)
 ****
 1  2  13  14  15  16  17  18  19  20  21  22  24  25 0
 3-21G
 ****
 27  28  29  32  34  39  40  41  42  43  44  45  46  47  48  49 0
 3-21G
 ****


