%nproc=1
%NoSave
%Mem=1900MB
#P OB98/GEN NMR

erre ene a

0 1
  C      478.658     668.903     442.172
  O      479.039     668.929     440.799
  P      478.013     668.867     439.575
  C      476.280     670.694     438.855
  O      477.619     670.368     439.172
  C      476.100     672.165     438.426
  O      476.561     673.040     439.493
  C      476.974     672.470     437.205
  O      476.500     672.167     435.902
  C      477.375     673.930     437.384
  O      476.508     674.835     436.699
  C      477.282     674.141     438.896
  N      481.384     677.106     439.677
  C      480.279     677.333     438.878
  N      480.279     678.480     438.149
  N      479.265     676.512     438.784
  C      479.429     675.373     439.496
  C      480.484     675.028     440.306
  C      481.571     675.971     440.444
  O      482.568     675.829     441.157
  N      480.308     673.784     440.851
  C      479.169     673.355     440.351
  N      478.591     674.295     439.525
  O      476.896     667.896     439.717
  O      478.938     668.371     438.346
  H      476.508     674.591     435.759
  H      478.364     667.837     437.764
  H      482.117     677.793     439.729
  H      478.704     672.398     440.549
  H      476.716     675.043     439.128
  H      478.385     674.101     436.971
  H      481.077     679.089     438.089
  H      477.896     671.899     437.314
  H      479.589     678.536     437.404
  H      475.053     672.398     438.277
  H      475.678     670.484     439.743
  H      475.914     670.041     438.063
  P      476.310     670.699     435.295
  C      474.597     668.798     435.408
  O      474.948     670.092     435.864
  O      477.427     669.823     436.034
  O      476.475     670.600     433.807
  H      477.580     668.985     435.569
  H      473.527     668.627     435.613
  H      475.185     668.039     435.930
  H      474.768     668.706     434.329
  H      479.533     668.957     442.786
  H      478.132     667.995     442.379
  H      478.023     669.738     442.382

 3  4  5  6  7  8  9  10  11  12  23  26  30  31 0
 6-311+G(2d,p)
 ****
 33  35  36  37  38 0
 6-311+G(2d,p)
 ****
 1  2  13  14  15  16  17  18  19  20  21  22  24  25 0
 3-21G
 ****
 27  28  29  32  34  39  40  41  42  43  44  45  46  47  48  49 0
 3-21G
 ****


