%nproc=1
%NoSave
%Mem=1900MB
#P OB98/GEN NMR

erre ene a

0 1
  C      119.323    -176.039      -8.929
  O      118.055    -176.014      -8.265
  P      116.798    -176.519      -9.129
  C      115.898    -174.100      -9.381
  O      116.299    -175.293     -10.040
  C      114.853    -173.330     -10.198
  O      115.394    -172.931     -11.493
  C      113.575    -174.133     -10.478
  O      112.483    -173.202     -10.475
  C      113.796    -174.627     -11.896
  O      112.570    -175.026     -12.509
  C      114.471    -173.398     -12.502
  N      116.055    -171.355     -16.841
  C      115.289    -170.809     -15.829
  N      114.933    -169.512     -15.971
  N      114.903    -171.475     -14.769
  C      115.369    -172.751     -14.747
  C      116.147    -173.399     -15.678
  C      116.537    -172.659     -16.858
  O      117.219    -173.093     -17.782
  N      116.439    -174.689     -15.283
  C      115.777    -174.824     -14.145
  N      115.159    -173.666     -13.749
  O      115.642    -176.677      -8.031
  O      117.045    -177.798      -9.862
  H      112.725    -175.076     -13.476
  H      115.539    -177.616      -7.784
  H      116.306    -170.798     -17.643
  H      115.730    -175.728     -13.556
  H      113.754    -172.594     -12.714
  H      114.476    -175.488     -11.899
  H      115.240    -168.925     -16.733
  H      113.384    -174.946      -9.770
  H      114.407    -169.074     -15.221
  H      114.599    -172.412      -9.652
  H      116.765    -173.455      -9.215
  H      115.512    -174.353      -8.387
  P      111.469    -173.240      -9.233
  C      109.865    -174.756     -10.589
  O      110.584    -174.565      -9.388
  O      110.438    -172.060      -9.570
  O      112.110    -173.027      -7.897
  H      110.196    -171.590      -8.748
  H      109.716    -175.827     -10.744
  H      110.402    -174.349     -11.454
  H      108.890    -174.272     -10.513
  H      120.081    -175.684      -8.263
  H      119.285    -175.410      -9.794
  H      119.550    -177.041      -9.226

 3  4  5  6  7  8  9  10  11  12  23  26  30  31 0
 6-311+G(2d,p)
 ****
 33  35  36  37  38 0
 6-311+G(2d,p)
 ****
 1  2  13  14  15  16  17  18  19  20  21  22  24  25 0
 3-21G
 ****
 27  28  29  32  34  39  40  41  42  43  44  45  46  47  48  49 0
 3-21G
 ****


