%nproc=1
%NoSave
%Mem=1900MB
#P OB98/GEN NMR

erre ene a

0 1
  C     -127.804    -348.814     536.085
  O     -128.017    -347.447     535.771
  P     -128.994    -346.535     536.660
  C     -131.566    -346.347     536.897
  O     -130.480    -346.958     536.211
  C     -132.864    -346.579     536.127
  O     -133.053    -347.986     535.912
  C     -134.121    -346.085     536.830
  O     -134.242    -344.675     536.744
  C     -135.193    -346.882     536.106
  O     -135.503    -346.271     534.845
  C     -134.483    -348.232     535.866
  N     -134.872    -349.250     536.837
  C     -135.785    -350.211     536.412
  O     -136.244    -350.201     535.274
  N     -136.167    -351.217     537.291
  C     -135.683    -351.225     538.490
  N     -136.036    -352.267     539.292
  C     -134.758    -350.201     539.012
  C     -134.399    -349.250     538.143
  O     -128.719    -345.075     536.611
  O     -128.899    -347.151     538.137
  H     -134.668    -346.187     534.352
  H     -128.164    -346.764     538.680
  H     -134.398    -350.251     540.036
  H     -133.701    -348.480     538.434
  H     -134.697    -348.610     534.873
  H     -136.127    -346.973     536.669
  H     -134.100    -346.387     537.890
  H     -132.764    -346.096     535.143
  H     -136.530    -353.041     538.848
  H     -131.376    -345.271     536.962
  H     -135.504    -352.510     540.120
  H     -131.631    -346.768     537.907
  P     -135.039    -343.918     537.920
  C     -137.237    -344.382     539.209
  O     -136.306    -344.856     538.242
  O     -135.653    -342.638     537.172
  O     -134.199    -343.546     539.093
  H     -135.130    -341.848     537.379
  H     -138.145    -344.995     539.132
  H     -137.508    -343.336     539.007
  H     -136.825    -344.482     540.214
  H     -127.125    -349.241     535.377
  H     -128.736    -349.338     536.046
  H     -127.391    -348.894     537.069

 3  4  5  6  7  8  9  10  11  12  13  23  27  28  29  30  32 0
 6-311+G(2d,p)
 ****
 34  35 0
 6-311+G(2d,p)
 ****
 1  2  14  15  16  17  18  19  20  21  22  24  25  26 0
 3-21G
 ****
 31  33  36  37  38  39  40  41  42  43  44  45  46 0
 3-21G
 ****


