%nproc=1
%NoSave
%Mem=1900MB
#P OB98/GEN NMR

erre ene a

0 1
  C     -495.238      74.695     272.689
  O     -493.947      74.659     272.120
  P     -493.230      75.977     271.583
  C     -491.144      75.783     273.102
  O     -491.641      75.759     271.762
  C     -489.624      75.893     273.089
  O     -489.047      74.585     272.782
  C     -489.097      76.905     272.027
  O     -488.212      77.899     272.541
  C     -488.506      75.991     270.967
  O     -487.564      76.628     270.116
  C     -488.004      74.814     271.806
  N     -487.726      73.624     271.002
  C     -486.988      72.605     271.610
  O     -486.578      72.632     272.760
  N     -486.680      71.532     270.802
  C     -486.911      71.449     269.472
  O     -486.520      70.499     268.784
  C     -487.652      72.569     268.873
  C     -488.043      73.583     269.652
  O     -493.734      77.259     272.174
  O     -493.402      75.880     270.000
  H     -488.028      77.343     269.651
  H     -493.009      75.091     269.598
  H     -486.150      70.791     271.244
  H     -487.846      72.530     267.815
  H     -488.599      74.428     269.245
  H     -487.093      75.070     272.347
  H     -489.333      75.647     270.318
  H     -489.918      77.477     271.601
  H     -489.295      76.193     274.093
  H     -491.429      74.855     273.594
  H     -491.607      76.611     273.649
  P     -488.334      79.470     272.265
  C     -488.685      80.390     274.688
  O     -487.823      80.250     273.572
  O     -489.663      79.916     271.747
  O     -487.179      79.751     271.190
  H     -487.434      80.517     270.632
  H     -488.424      81.302     275.221
  H     -488.548      79.533     275.355
  H     -489.734      80.442     274.379
  H     -495.527      73.707     272.981
  H     -495.934      75.072     271.970
  H     -495.232      75.333     273.548

 3  4  5  6  7  8  9  10  11  12  13  23  28  29  30  31  32 0
 6-311+G(2d,p)
 ****
 33  34 0
 6-311+G(2d,p)
 ****
 1  2  14  15  16  17  18  19  20  21  22  24  25  26  27 0
 3-21G
 ****
 35  36  37  38  39  40  41  42  43  44  45 0
 3-21G
 ****


