%nproc=1
%NoSave
%Mem=1900MB
#P OB98/GEN NMR

erre ene a

0 1
  C     -582.146    -111.776     336.653
  O     -583.317    -112.192     335.964
  P     -584.115    -111.083     335.132
  C     -585.656    -111.121     333.034
  O     -584.930    -111.864     334.006
  C     -586.943    -111.838     332.649
  O     -586.654    -113.169     332.160
  C     -587.908    -112.035     333.810
  O     -588.594    -110.821     334.101
  C     -588.813    -113.144     333.276
  O     -589.895    -112.604     332.498
  C     -587.838    -113.971     332.390
  N     -587.493    -115.254     332.978
  C     -588.061    -116.380     332.357
  O     -588.811    -116.232     331.391
  N     -587.800    -117.620     332.872
  C     -587.028    -117.736     333.920
  N     -586.800    -118.991     334.378
  C     -586.430    -116.575     334.609
  C     -586.721    -115.374     334.092
  O     -582.954    -110.333     334.301
  O     -584.913    -110.126     335.965
  H     -590.386    -113.376     332.167
  H     -583.213    -109.421     334.082
  H     -585.801    -116.731     335.475
  H     -586.307    -114.476     334.552
  H     -588.273    -114.153     331.399
  H     -589.265    -113.726     334.091
  H     -587.366    -112.386     334.702
  H     -587.434    -111.281     331.829
  H     -587.225    -119.778     333.888
  H     -585.026    -111.009     332.124
  H     -586.204    -119.200     335.176
  H     -585.859    -110.118     333.422
  P     -589.452    -110.755     335.456
  C     -590.583    -108.821     336.682
  O     -589.543    -109.207     335.807
  O     -588.404    -111.292     336.540
  O     -590.737    -111.533     335.489
  H     -588.846    -111.393     337.408
  H     -590.447    -107.773     336.968
  H     -590.577    -109.429     337.587
  H     -591.551    -108.922     336.182
  H     -581.716    -112.613     337.163
  H     -582.401    -111.017     337.363
  H     -581.439    -111.385     335.951

 3  4  5  6  7  8  9  10  11  12  13  21  23  27  28  29  30  32 0
 6-311+G(2d,p)
 ****
 34  35 0
 6-311+G(2d,p)
 ****
 1  2  14  15  16  17  18  19  20  22  24  25  26 0
 3-21G
 ****
 31  33  36  37  38  39  40  41  42  43  44  45  46 0
 3-21G
 ****


