%nproc=1
%NoSave
%Mem=1900MB
#P OB98/GEN NMR

erre ene a

0 1
  C     -136.773    -275.239    -308.789
  O     -138.174    -275.264    -308.982
  H     -136.543    -275.209    -307.720
  H     -136.344    -276.149    -309.216
  H     -136.337    -274.375    -309.290
  P     -138.991    -274.012    -308.399
  C     -140.529    -273.722    -310.462
  O     -139.495    -273.159    -309.668
  C     -141.207    -272.631    -311.287
  O     -141.802    -271.671    -310.377
  C     -140.247    -271.865    -312.219
  O     -140.777    -271.810    -313.550
  C     -140.224    -270.458    -311.653
  O     -140.098    -269.457    -312.652
  C     -141.555    -270.371    -310.918
  N     -141.272    -265.363    -309.996
  C     -141.646    -266.050    -311.099
  N     -141.792    -267.381    -311.254
  C     -141.544    -268.020    -310.094
  C     -141.173    -267.457    -308.884
  C     -141.016    -266.060    -308.868
  N     -140.581    -265.367    -307.758
  N     -140.994    -268.432    -307.922
  C     -141.207    -269.575    -308.552
  N     -141.528    -269.368    -309.871
  O     -137.846    -273.093    -307.756
  O     -140.037    -274.365    -307.399
  H     -140.265    -268.596    -312.227
  H     -138.019    -273.000    -306.800
  H     -141.847    -265.445    -311.984
  H     -141.099    -270.560    -308.120
  H     -142.382    -270.128    -311.601
  H     -139.380    -270.366    -310.959
  H     -139.244    -272.303    -312.245
  H     -142.020    -273.084    -311.863
  H     -141.276    -274.189    -309.809
  H     -140.384    -264.386    -307.866
  H     -140.285    -265.889    -306.949
  H     -140.100    -274.490    -311.114
  P     -140.096    -272.799    -314.626
  C     -142.011    -274.551    -314.812
  O     -140.684    -274.282    -314.376
  O     -138.584    -272.896    -314.124
  O     -140.180    -272.311    -316.027
  H     -137.979    -272.630    -314.837
  H     -142.263    -275.565    -314.582
  H     -142.077    -274.398    -315.869
  H     -142.691    -273.892    -314.313

 6  7  8  9  10  11  12  13  14  15  25  28  32  33  34  35 0
 6-311+G(2d,p)
 ****
 36  39  40 0
 6-311+G(2d,p)
 ****
 1  2  3  4  5  16  17  18  19  20  21  22  23  24 0
 3-21G
 ****
 26  27  29  30  31  37  38  41  42  43  44  45  46  47  48 0
 3-21G
 ****


