%nproc=1
%NoSave
%Mem=1900MB
#P OB98/GEN NMR

erre ene a

0 1
  C     -295.506      42.196     -38.220
  O     -295.964      41.789     -39.494
  H     -296.372      42.390     -37.583
  H     -294.923      43.116     -38.307
  H     -294.899      41.413     -37.756
  P     -294.897      41.266     -40.568
  C     -294.136      43.725     -40.786
  O     -293.736      42.369     -40.642
  C     -292.937      44.666     -40.609
  O     -291.866      44.228     -41.498
  C     -293.236      46.141     -40.950
  O     -292.379      46.944     -40.124
  C     -292.805      46.188     -42.407
  O     -292.720      47.498     -42.903
  C     -291.512      45.368     -42.310
  N     -290.950      44.937     -43.587
  C     -289.922      45.700     -44.129
  O     -289.447      46.711     -43.612
  N     -289.429      45.263     -45.334
  C     -289.847      44.157     -46.017
  O     -289.346      43.797     -47.075
  C     -290.941      43.398     -45.397
  C     -291.432      43.812     -44.223
  O     -295.456      40.845     -41.886
  O     -294.177      40.045     -39.819
  H     -294.536      39.201     -40.151
  H     -293.605      47.919     -42.846
  H     -288.681      45.800     -45.741
  H     -291.303      42.524     -45.920
  H     -292.232      43.264     -43.737
  H     -290.751      45.934     -41.759
  H     -293.546      45.680     -43.030
  H     -294.276      46.419     -40.774
  H     -292.559      44.566     -39.583
  H     -294.891      43.941     -40.022
  H     -294.580      43.865     -41.777
  P     -292.861      47.633     -38.760
  C     -293.469      49.965     -39.707
  O     -293.947      48.759     -39.124
  O     -291.742      48.136     -37.903
  O     -293.709      46.509     -37.992
  H     -293.684      46.678     -37.033
  H     -294.293      50.621     -39.896
  H     -292.971      49.743     -40.628
  H     -292.783      50.438     -39.036

 6  7  8  9  10  11  12  13  14  15  16  27  31  32  33  34  35 0
 6-311+G(2d,p)
 ****
 36  37 0
 6-311+G(2d,p)
 ****
 1  2  3  4  5  17  18  19  20  21  22  23  24  25 0
 3-21G
 ****
 26  28  29  30  38  39  40  41  42  43  44  45 0
 3-21G
 ****


