%nproc=1
%NoSave
%Mem=1900MB
#P OB98/GEN NMR

erre ene a

0 1
  C      -47.793       7.544     -14.992
  O      -48.568       7.128     -13.887
  H      -48.390       7.433     -15.902
  H      -46.897       6.923     -15.082
  H      -47.510       8.594     -14.880
  P      -47.854       7.155     -12.450
  C      -47.440       4.600     -12.680
  O      -46.885       5.877     -12.394
  C      -46.365       3.529     -12.525
  O      -45.283       3.780     -13.452
  C      -45.719       3.493     -11.147
  O      -46.532       2.839     -10.188
  C      -44.438       2.732     -11.450
  O      -44.653       1.311     -11.439
  C      -44.085       3.227     -12.870
  N      -42.987       4.189     -12.859
  C      -41.805       3.749     -12.270
  O      -41.672       2.628     -11.781
  N      -40.785       4.660     -12.224
  C      -40.844       5.951     -12.665
  O      -39.916       6.739     -12.529
  C      -42.113       6.355     -13.294
  C      -43.115       5.473     -13.351
  O      -49.043       6.777     -11.448
  O      -47.204       8.450     -12.091
  H      -49.367       7.579     -10.997
  H      -43.835       0.910     -11.792
  H      -39.925       4.364     -11.791
  H      -42.191       7.372     -13.661
  H      -44.067       5.755     -13.791
  H      -43.788       2.382     -13.505
  H      -43.663       2.940     -10.711
  H      -45.459       4.508     -10.822
  H      -46.809       2.554     -12.771
  H      -47.812       4.586     -13.711
  H      -48.277       4.415     -12.000
  P      -46.929       3.632      -8.852
  C      -44.675       2.747      -7.832
  O      -45.573       3.826      -8.017
  O      -47.725       2.504      -8.047
  O      -47.694       4.888      -9.103
  H      -47.360       1.612      -8.180
  H      -43.837       3.075      -7.253
  H      -44.335       2.399      -8.785
  H      -45.174       1.952      -7.319

 6  7  8  9  10  11  12  13  14  15  16  27  31  32  33  34  35 0
 6-311+G(2d,p)
 ****
 36  37 0
 6-311+G(2d,p)
 ****
 1  2  3  4  5  17  18  19  20  21  22  23  24  25 0
 3-21G
 ****
 26  28  29  30  38  39  40  41  42  43  44  45 0
 3-21G
 ****


