%nproc=1
%NoSave
%Mem=1900MB
#P OB98/GEN NMR

erre ene a

0 1
  C      -51.084    -546.489     -61.088
  O      -51.798    -546.171     -62.265
  H      -50.302    -545.738     -60.942
  H      -50.607    -547.469     -61.185
  H      -51.746    -546.478     -60.220
  P      -53.005    -547.128     -62.710
  C      -53.108    -549.650     -63.291
  O      -52.283    -548.517     -63.095
  C      -52.260    -550.922     -63.294
  O      -51.688    -551.176     -61.992
  C      -53.025    -552.200     -63.631
  O      -53.367    -552.325     -65.001
  C      -52.003    -553.235     -63.198
  O      -50.955    -553.319     -64.176
  C      -51.491    -552.615     -61.876
  N      -52.191    -553.132     -60.700
  C      -51.727    -554.344     -60.178
  O      -50.776    -554.933     -60.703
  N      -52.366    -554.890     -59.088
  C      -53.395    -554.284     -58.583
  N      -53.997    -554.871     -57.505
  C      -53.934    -553.019     -59.111
  C      -53.289    -552.499     -60.156
  O      -53.930    -546.580     -63.747
  O      -53.738    -547.517     -61.340
  H      -51.381    -553.516     -65.030
  H      -54.501    -548.104     -61.563
  H      -54.809    -552.571     -58.668
  H      -53.627    -551.576     -60.605
  H      -50.418    -552.786     -61.756
  H      -52.423    -554.240     -63.087
  H      -53.917    -552.303     -62.997
  H      -51.426    -550.756     -63.990
  H      -53.604    -555.740     -57.166
  H      -53.637    -549.528     -64.243
  H      -54.845    -554.514     -57.093
  H      -53.839    -549.725     -62.483
  P      -54.476    -553.421     -65.379
  C      -55.018    -555.776     -64.392
  O      -54.049    -554.769     -64.632
  O      -54.183    -553.715     -66.924
  O      -55.892    -552.999     -65.134
  H      -54.795    -553.214     -67.492
  H      -54.559    -556.600     -63.887
  H      -55.423    -556.111     -65.324
  H      -55.803    -555.378     -63.784

 6  7  8  9  10  11  12  13  14  15  16  26  30  31  32  33  35 0
 6-311+G(2d,p)
 ****
 37  38 0
 6-311+G(2d,p)
 ****
 1  2  3  4  5  17  18  19  20  21  22  23  24  25 0
 3-21G
 ****
 27  28  29  34  36  39  40  41  42  43  44  45  46 0
 3-21G
 ****


