%nproc=1
%NoSave
%Mem=1900MB
#P OB98/GEN NMR

erre ene a

0 1
  C      635.613     242.487     200.405
  O      634.321     242.571     199.841
  H      635.863     243.455     200.847
  H      636.354     242.246     199.640
  H      635.634     241.729     201.195
  P      633.761     241.307     199.029
  C      631.735     241.111     200.623
  O      632.180     241.261     199.282
  C      630.516     242.000     200.901
  O      630.975     243.356     201.179
  C      629.532     242.091     199.721
  O      628.223     242.301     200.266
  C      630.024     243.342     199.010
  O      629.081     243.809     198.082
  C      630.343     244.227     200.216
  N      631.191     245.358     199.867
  C      630.796     246.610     200.356
  O      629.773     246.708     201.036
  N      631.549     247.712     200.047
  C      632.571     247.591     199.252
  N      633.268     248.725     198.973
  C      632.988     246.298     198.663
  C      632.267     245.235     199.013
  O      634.471     240.017     199.263
  O      633.866     241.759     197.494
  H      628.945     243.156     197.360
  H      634.616     241.309     197.068
  H      633.835     246.254     198.000
  H      632.496     244.245     198.630
  H      629.425     244.615     200.673
  H      630.938     243.126     198.450
  H      629.542     241.195     199.089
  H      630.015     241.642     201.804
  H      632.936     249.587     199.388
  H      632.566     241.400     201.279
  H      634.066     248.756     198.356
  H      631.476     240.065     200.821
  P      626.886     242.188     199.389
  C      625.631     240.125     200.313
  O      625.722     241.548     200.288
  O      627.073     241.510     198.069
  O      626.399     243.701     199.179
  H      625.937     243.768     198.322
  H      624.819     239.831     200.945
  H      626.544     239.716     200.692
  H      625.461     239.761     199.321

 6  7  8  9  10  11  12  13  14  15  16  26  30  31  32  33  35 0
 6-311+G(2d,p)
 ****
 37  38 0
 6-311+G(2d,p)
 ****
 1  2  3  4  5  17  18  19  20  21  22  23  24  25 0
 3-21G
 ****
 27  28  29  34  36  39  40  41  42  43  44  45  46 0
 3-21G
 ****


