%nproc=1
%NoSave
%Mem=1900MB
#P OB98/GEN NMR

erre ene a

0 1
  C      264.254    -250.152    -897.460
  O      264.169    -248.860    -898.030
  H      265.241    -250.257    -896.990
  H      264.153    -250.912    -898.230
  H      263.482    -250.287    -896.700
  P      262.759    -248.464    -898.700
  C      262.362    -246.477    -897.090
  O      261.892    -247.740    -897.550
  C      261.172    -245.636    -896.600
  O      260.162    -245.561    -897.670
  C      260.462    -246.191    -895.350
  O      260.022    -245.074    -894.560
  C      259.244    -246.878    -895.920
  O      258.193    -247.044    -894.970
  C      258.898    -245.915    -897.070
  N      254.239    -247.687    -897.730
  C      254.829    -247.086    -896.640
  N      254.037    -246.929    -895.550
  N      256.059    -246.667    -896.620
  C      256.709    -246.866    -897.780
  C      256.258    -247.453    -898.940
  C      254.885    -247.931    -898.940
  O      254.329    -248.497    -899.870
  N      257.236    -247.480    -899.900
  C      258.283    -246.911    -899.330
  N      258.016    -246.519    -898.050
  O      262.041    -249.887    -898.880
  O      262.853    -247.719    -900.000
  H      257.385    -247.299    -895.470
  H      262.217    -250.240    -899.770
  H      253.290    -248.004    -897.700
  H      259.249    -246.762    -899.790
  H      258.417    -245.007    -896.710
  H      259.513    -247.867    -896.310
  H      253.067    -247.184    -895.500
  H      261.085    -246.852    -894.740
  H      254.441    -246.452    -894.740
  H      261.519    -244.610    -896.430
  H      262.851    -245.949    -897.910
  H      263.069    -246.621    -896.280
  P      260.431    -245.045    -893.010
  C      261.715    -242.807    -893.350
  O      261.746    -244.151    -892.860
  O      260.990    -246.536    -892.760
  O      259.306    -244.714    -892.090
  H      260.858    -246.780    -891.820
  H      262.663    -242.343    -893.178
  H      260.951    -242.259    -892.839
  H      261.507    -242.815    -894.400

 6  7  8  9  10  11  12  13  14  15  26  29  33  34 0
 6-311+G(2d,p)
 ****
 36  38  39  40  41 0
 6-311+G(2d,p)
 ****
 1  2  3  4  5  16  17  18  19  20  21  22  23  24  25 0
 3-21G
 ****
 27  28  30  31  32  35  37  42  43  44  45  46  47 0
 3-21G
 ****
 48  49 0
 3-21G
 ****


