%nproc=1
%NoSave
%Mem=1900MB
#P OB98/GEN NMR

erre ene a

0 1
  C      482.933     413.433    -897.960
  O      481.639     413.915    -897.610
  P      480.379     412.997    -897.980
  C      480.010     412.512    -895.410
  O      480.132     412.008    -896.730
  C      480.479     411.475    -894.370
  O      479.511     410.394    -894.350
  C      481.824     410.814    -894.670
  O      482.322     410.228    -893.460
  C      481.420     409.715    -895.630
  O      482.439     408.704    -895.740
  C      480.059     409.259    -895.070
  N      479.112     408.796    -896.100
  C      478.748     407.457    -896.130
  O      479.156     406.612    -895.340
  N      477.898     407.082    -897.130
  C      477.350     407.912    -898.080
  O      476.672     407.503    -899.020
  C      477.657     409.339    -897.930
  C      478.506     409.730    -896.970
  O      480.930     412.031    -899.140
  O      479.175     413.755    -898.400
  H      482.655     408.448    -894.810
  H      480.579     412.302    -900.000
  H      477.681     406.093    -897.220
  H      477.188     410.035    -898.600
  H      478.753     410.775    -896.850
  H      480.188     408.417    -894.350
  H      481.286     410.134    -896.640
  H      482.571     411.490    -895.100
  H      480.475     411.932    -893.390
  H      478.974     412.797    -895.230
  H      480.618     413.420    -895.310
  P      482.602     411.206    -892.220
  C      480.342     410.391    -891.290
  O      481.189     411.496    -891.540
  O      483.475     412.384    -892.490
  O      483.294     410.211    -891.150
  H      483.778     410.738    -890.490
  H      479.713     410.605    -890.410
  H      480.934     409.487    -891.090
  H      479.690     410.229    -892.160
  H      483.673     414.143    -897.655
  H      482.987     413.294    -899.020
  H      483.111     412.499    -897.468

 3  4  5  6  7  8  9  10  11  12  13  23  28  29  30  31  32 0
 6-311+G(2d,p)
 ****
 33  34 0
 6-311+G(2d,p)
 ****
 1  2  14  15  16  17  18  19  20  21  22  24  25  26  27 0
 3-21G
 ****
 35  36  37  38  39  40  41  42  43  44  45 0
 3-21G
 ****


