%nproc=1
%NoSave
%Mem=1900MB
#P OB98/GEN NMR

erre ene a

0 1
  C      -39.989     431.005    -598.958
  O      -40.106     431.056    -600.368
  H      -40.739     430.332    -598.536
  H      -38.992     430.632    -598.703
  H      -40.106     432.009    -598.537
  P      -41.541     431.479    -600.945
  C      -42.011     429.196    -602.080
  O      -42.397     430.126    -601.077
  C      -42.857     427.931    -601.978
  O      -42.622     427.276    -600.715
  C      -44.364     428.167    -602.034
  O      -44.820     428.369    -603.364
  C      -44.875     426.854    -601.460
  O      -44.860     425.837    -602.487
  C      -43.827     426.527    -600.392
  N      -47.518     426.124    -596.850
  C      -47.432     425.648    -598.111
  N      -46.424     425.804    -598.994
  C      -45.419     426.522    -598.462
  C      -45.374     427.066    -597.188
  C      -46.489     426.848    -596.357
  N      -46.578     427.350    -595.079
  N      -44.177     427.724    -596.984
  C      -43.518     427.587    -598.115
  N      -44.229     426.863    -599.039
  O      -41.231     431.870    -602.470
  O      -42.218     432.597    -600.220
  H      -45.142     425.009    -602.059
  H      -41.807     432.614    -602.727
  H      -48.279     425.065    -598.454
  H      -42.523     427.975    -598.303
  H      -43.544     425.467    -600.404
  H      -45.895     426.919    -601.080
  H      -44.660     428.994    -601.372
  H      -42.545     427.248    -602.777
  H      -40.960     428.935    -601.944
  H      -47.303     427.003    -594.471
  H      -45.797     427.888    -594.719
  H      -42.140     429.661    -603.064
  P      -46.357     428.812    -603.559
  C      -46.814     426.726    -605.033
  O      -47.161     427.458    -603.863
  O      -46.340     429.553    -604.983
  O      -46.908     429.682    -602.486
  H      -47.077     430.189    -605.034
  H      -47.429     425.854    -605.104
  H      -45.786     426.434    -604.979
  H      -46.966     427.340    -605.896

 6  7  8  9  10  11  12  13  14  15  25  28  32  33  34  35 0
 6-311+G(2d,p)
 ****
 36  39  40 0
 6-311+G(2d,p)
 ****
 1  2  3  4  5  16  17  18  19  20  21  22  23  24 0
 3-21G
 ****
 26  27  29  30  31  37  38  41  42  43  44  45  46  47  48 0
 3-21G
 ****


