%nproc=1
%NoSave
%Mem=1900MB
#P OB98/GEN NMR

erre ene a

0 1
  C     -117.150      50.815     -35.195
  O     -117.691      51.199     -36.442
  H     -117.843      51.114     -34.405
  H     -116.194      51.317     -35.029
  H     -117.014      49.731     -35.146
  P     -116.972      50.699     -37.783
  C     -119.001      50.473     -39.359
  O     -117.854      51.237     -39.010
  C     -119.888      51.272     -40.309
  O     -120.610      52.288     -39.582
  C     -119.121      52.011     -41.400
  O     -118.698      51.119     -42.414
  C     -120.163      53.031     -41.837
  O     -121.119      52.435     -42.728
  C     -120.820      53.397     -40.486
  N     -120.308      54.642     -39.914
  C     -121.034      55.795     -40.192
  O     -122.035      55.802     -40.908
  N     -120.560      56.950     -39.630
  C     -119.410      57.073     -38.906
  O     -118.999      58.144     -38.468
  C     -118.664      55.829     -38.673
  C     -119.140      54.688     -39.179
  O     -116.640      49.246     -37.840
  O     -115.655      51.608     -37.864
  H     -120.648      52.263     -43.566
  H     -114.886      51.099     -37.549
  H     -121.066      57.798     -39.830
  H     -117.744      55.889     -38.108
  H     -118.601      53.761     -39.023
  H     -121.905      53.499     -40.607
  H     -119.725      53.878     -42.365
  H     -118.267      52.545     -40.968
  H     -120.624      50.586     -40.748
  H     -119.561      50.241     -38.446
  H     -118.677      49.539     -39.824
  P     -117.254      51.266     -43.083
  C     -117.293      48.788     -43.725
  O     -117.116      50.117     -44.196
  O     -116.112      51.343     -42.125
  O     -117.365      52.603     -43.954
  H     -116.873      53.326     -43.516
  H     -117.182      48.103     -44.540
  H     -118.272      48.686     -43.304
  H     -116.559      48.574     -42.976

 6  7  8  9  10  11  12  13  14  15  16  26  31  32  33  34  35 0
 6-311+G(2d,p)
 ****
 36  37 0
 6-311+G(2d,p)
 ****
 1  2  3  4  5  17  18  19  20  21  22  23  24  25 0
 3-21G
 ****
 27  28  29  30  38  39  40  41  42  43  44  45 0
 3-21G
 ****


