%nproc=1
%NoSave
%Mem=1900MB
#P OB98/GEN NMR

erre ene a

0 1
  C     -200.398    -314.572      -4.868
  O     -200.107    -315.911      -5.233
  P     -201.151    -316.667      -6.187
  C     -203.744    -316.868      -6.141
  O     -202.546    -316.699      -5.397
  C     -204.720    -317.757      -5.375
  O     -205.235    -317.070      -4.216
  C     -205.946    -318.172      -6.174
  O     -205.685    -319.266      -7.039
  C     -206.892    -318.589      -5.060
  O     -206.570    -319.919      -4.615
  C     -206.574    -317.564      -3.967
  N     -211.470    -316.290      -3.870
  C     -210.876    -317.522      -3.685
  N     -211.707    -318.571      -3.507
  N     -209.580    -317.710      -3.669
  C     -208.874    -316.570      -3.871
  C     -209.350    -315.291      -4.061
  C     -210.782    -315.102      -4.086
  O     -211.371    -314.047      -4.298
  N     -208.326    -314.394      -4.219
  C     -207.231    -315.122      -4.121
  N     -207.511    -316.455      -3.953
  O     -200.666    -318.193      -6.133
  O     -201.212    -316.146      -7.585
  H     -207.157    -320.111      -3.857
  H     -201.052    -318.693      -6.876
  H     -212.472    -316.200      -3.878
  H     -206.223    -314.734      -4.182
  H     -206.576    -318.017      -2.971
  H     -207.941    -318.607      -5.378
  H     -212.710    -318.501      -3.571
  H     -206.377    -317.318      -6.718
  H     -211.299    -319.495      -3.431
  H     -204.171    -318.642      -5.028
  H     -203.507    -317.329      -7.103
  H     -204.195    -315.887      -6.329
  P     -206.348    -319.208      -8.499
  C     -208.785    -318.901      -9.352
  O     -207.927    -319.118      -8.245
  O     -206.130    -320.689      -9.055
  O     -205.763    -318.173      -9.404
  H     -206.105    -320.690     -10.030
  H     -209.811    -319.134      -9.050
  H     -208.512    -319.547     -10.188
  H     -208.735    -317.855      -9.661
  H     -199.621    -314.198      -4.235
  H     -201.331    -314.540      -4.345
  H     -200.462    -313.968      -5.749

 3  4  5  6  7  8  9  10  11  12  23  26  30  31 0
 6-311+G(2d,p)
 ****
 33  35  36  37  38 0
 6-311+G(2d,p)
 ****
 1  2  13  14  15  16  17  18  19  20  21  22  24  25 0
 3-21G
 ****
 27  28  29  32  34  39  40  41  42  43  44  45  46  47  48  49 0
 3-21G
 ****


