%nproc=1
%NoSave
%Mem=1900MB
#P OB98/GEN NMR

erre ene a

0 1
  C       49.173      54.412     113.534
  O       50.058      53.966     112.499
  P       50.763      52.524     112.503
  C       52.382      52.964     114.461
  O       51.289      52.193     113.984
  C       52.934      52.414     115.781
  O       53.442      51.059     115.586
  C       54.076      53.247     116.389
  O       53.879      53.240     117.806
  C       55.302      52.438     115.992
  O       56.454      52.738     116.757
  C       54.753      51.022     116.187
  N       55.557      49.952     115.607
  C       55.560      48.713     116.259
  O       54.956      48.542     117.315
  N       56.277      47.681     115.702
  C       56.937      47.865     114.602
  N       57.617      46.799     114.101
  C       56.977      49.155     113.895
  C       56.272      50.142     114.445
  O       51.816      52.369     111.454
  O       49.581      51.469     112.272
  H       49.913      50.729     111.729
  H       56.322      52.378     117.653
  H       57.535      49.265     112.976
  H       56.227      51.116     113.969
  H       54.610      50.833     117.257
  H       55.534      52.646     114.943
  H       54.095      54.284     116.041
  H       52.101      52.337     116.490
  H       57.557      45.925     114.610
  H       52.039      53.990     114.623
  H       58.156      46.828     113.249
  H       53.167      52.982     113.697
  P       53.434      54.588     118.552
  C       55.753      55.553     119.242
  O       54.627      55.646     118.394
  O       53.570      54.170     120.096
  O       52.050      55.074     118.270
  H       52.972      54.724     120.630
  H       56.656      55.682     118.641
  H       55.809      54.589     119.754
  H       55.705      56.351     119.987
  H       48.832      55.401     113.310
  H       49.692      54.417     114.470
  H       48.334      53.751     113.595

 3  4  5  6  7  8  9  10  11  12  13  24  27  28  29  30  32 0
 6-311+G(2d,p)
 ****
 34  35 0
 6-311+G(2d,p)
 ****
 1  2  14  15  16  17  18  19  20  21  22  23  25  26 0
 3-21G
 ****
 31  33  36  37  38  39  40  41  42  43  44  45  46 0
 3-21G
 ****


