%nproc=1
%NoSave
%Mem=1900MB
#P OB98/GEN NMR

erre ene a

0 1
  C      276.418    -645.981    -275.390
  O      276.389    -644.571    -275.262
  H      277.365    -646.349    -274.980
  H      276.353    -646.259    -276.441
  H      275.591    -646.431    -274.830
  P      275.043    -643.828    -275.720
  C      274.429    -641.343    -276.135
  O      275.459    -642.318    -276.086
  C      275.021    -639.931    -276.136
  O      275.650    -639.678    -274.841
  C      276.083    -639.690    -277.218
  O      275.967    -638.335    -277.673
  C      277.389    -639.826    -276.450
  O      278.481    -639.170    -277.104
  C      276.979    -639.190    -275.121
  N      281.503    -638.094    -273.193
  C      280.820    -637.539    -274.263
  N      281.447    -636.539    -274.931
  N      279.644    -637.936    -274.658
  C      279.117    -638.924    -273.878
  C      279.688    -639.555    -272.791
  C      281.020    -639.125    -272.400
  O      281.676    -639.591    -271.470
  N      278.853    -640.523    -272.297
  C      277.789    -640.479    -273.074
  N      277.905    -639.523    -274.050
  O      274.241    -643.675    -274.339
  O      274.237    -644.540    -276.757
  H      279.290    -639.339    -276.573
  H      273.631    -644.424    -274.218
  H      282.418    -637.760    -272.943
  H      276.911    -641.107    -272.978
  H      276.937    -638.095    -275.174
  H      277.649    -640.878    -276.319
  H      282.341    -636.154    -274.662
  H      276.018    -640.374    -278.078
  H      280.950    -636.097    -275.698
  H      274.199    -639.207    -276.235
  H      273.785    -641.458    -275.254
  H      273.822    -641.496    -277.038
  P      275.205    -638.065    -279.059
  C      273.292    -636.385    -279.607
  O      274.561    -636.597    -278.998
  O      273.926    -639.025    -278.959
  O      276.027    -638.357    -280.275
  H      273.634    -639.283    -279.857
  H      273.002    -635.363    -279.481
  H      272.565    -637.021    -279.147
  H      273.355    -636.612    -280.651

 6  7  8  9  10  11  12  13  14  15  26  29  33  34 0
 6-311+G(2d,p)
 ****
 36  38  39  40  41 0
 6-311+G(2d,p)
 ****
 1  2  3  4  5  16  17  18  19  20  21  22  23  24  25 0
 3-21G
 ****
 27  28  30  31  32  35  37  42  43  44  45  46  47 0
 3-21G
 ****
 48  49 0
 3-21G
 ****


