%nproc=1
%NoSave
%Mem=1900MB
#P OB98/GEN NMR

erre ene a

0 1
  C     1183.642    -112.619     162.628
  O     1184.643    -111.889     161.942
  H     1183.603    -113.627     162.218
  H     1182.668    -112.147     162.490
  H     1183.876    -112.677     163.695
  P     1184.947    -110.402     162.466
  C     1187.227    -111.166     163.462
  O     1185.966    -110.559     163.697
  C     1188.214    -110.756     164.564
  O     1188.572    -109.368     164.370
  C     1187.624    -110.896     165.974
  O     1188.650    -111.328     166.862
  C     1187.218    -109.472     166.320
  O     1187.132    -109.220     167.712
  C     1188.317    -108.669     165.618
  N     1187.926    -107.285     165.364
  C     1188.837    -106.289     165.704
  O     1189.968    -106.501     166.137
  N     1188.399    -105.006     165.547
  C     1187.164    -104.620     165.104
  O     1186.829    -103.453     164.987
  C     1186.243    -105.709     164.754
  C     1186.661    -106.972     164.902
  O     1183.575    -109.973     163.176
  O     1185.375    -109.425     161.422
  H     1182.979    -109.537     162.542
  H     1187.898    -109.658     168.143
  H     1189.049    -104.277     165.785
  H     1185.259    -105.445     164.415
  H     1186.004    -107.808     164.675
  H     1189.236    -108.697     166.199
  H     1186.236    -109.250     165.879
  H     1186.783    -111.584     166.023
  H     1189.122    -111.345     164.452
  H     1187.605    -110.827     162.488
  H     1187.104    -112.252     163.445
  P     1188.820    -112.917     167.085
  C     1191.376    -112.894     166.500
  O     1190.068    -113.353     166.167
  O     1187.545    -113.467     166.308
  O     1188.930    -113.291     168.523
  H     1187.320    -112.973     165.506
  H     1192.080    -113.276     165.790
  H     1191.636    -113.237     167.480
  H     1191.394    -111.824     166.480

 6  7  8  9  10  11  12  13  14  15  16  27  31  32  33  34  35 0
 6-311+G(2d,p)
 ****
 36  37 0
 6-311+G(2d,p)
 ****
 1  2  3  4  5  17  18  19  20  21  22  23  24  25 0
 3-21G
 ****
 26  28  29  30  38  39  40  41  42  43  44  45 0
 3-21G
 ****


