%nproc=1
%NoSave
%Mem=1900MB
#P OB98/GEN NMR

erre ene a

0 1
  C     -175.130    -205.981      93.896
  O     -173.947    -206.241      94.629
  H     -174.854    -205.593      92.912
  H     -175.738    -205.234      94.415
  H     -175.705    -206.902      93.766
  P     -174.140    -206.837      96.106
  C     -172.377    -205.164      97.051
  O     -172.780    -206.517      96.893
  C     -170.859    -205.038      96.875
  O     -170.204    -205.753      97.967
  C     -170.330    -205.639      95.565
  O     -169.143    -204.918      95.194
  C     -169.951    -207.047      96.004
  O     -169.144    -207.677      95.037
  C     -169.330    -206.728      97.358
  N     -166.846    -211.138      98.107
  C     -166.698    -210.171      97.174
  N     -167.389    -209.020      97.048
  C     -168.301    -208.900      98.029
  C     -168.562    -209.799      99.048
  C     -167.783    -210.969      99.069
  N     -167.937    -211.959     100.010
  N     -169.579    -209.329      99.864
  C     -169.923    -208.171      99.339
  N     -169.185    -207.874      98.227
  O     -174.085    -208.418      95.875
  O     -175.387    -206.415      96.810
  H     -168.708    -208.474      95.414
  H     -174.990    -208.773      95.792
  H     -165.923    -210.347      96.432
  H     -170.701    -207.515      99.718
  H     -168.338    -206.268      97.253
  H     -170.846    -207.668      96.121
  H     -171.053    -205.602      94.744
  H     -170.574    -203.981      96.977
  H     -172.666    -204.830      98.054
  H     -172.885    -204.542      96.306
  H     -167.354    -212.778      99.943
  H     -168.645    -211.858     100.723
  P     -169.291    -203.549      94.361
  C     -169.775    -204.864      92.149
  O     -169.015    -203.864      92.810
  O     -167.954    -202.761      94.780
  O     -170.504    -202.735      94.661
  H     -168.115    -201.800      94.718
  H     -169.458    -204.937      91.130
  H     -170.812    -204.604      92.182
  H     -169.628    -205.805      92.637

 6  7  8  9  10  11  12  13  14  15  25  28  32  33  34  35 0
 6-311+G(2d,p)
 ****
 36  37  40 0
 6-311+G(2d,p)
 ****
 1  2  3  4  5  16  17  18  19  20  21  22  23  24 0
 3-21G
 ****
 26  27  29  30  31  38  39 41  42  43  44  45  46  47  48 0
 3-21G
 ****


