%nproc=1
%NoSave
%Mem=1900MB
#P OB98/GEN NMR

erre ene a

0 1
  C      -32.542    -111.011      39.448
  O      -32.076    -112.340      39.332
  P      -33.070    -113.593      39.464
  C      -32.485    -114.097      41.919
  O      -33.487    -113.657      41.012
  C      -33.054    -115.076      42.948
  O      -34.195    -114.467      43.619
  C      -33.523    -116.418      42.365
  O      -33.258    -117.407      43.368
  C      -35.016    -116.203      42.206
  O      -35.738    -117.424      42.098
  C      -35.319    -115.359      43.454
  N      -36.584    -114.638      43.333
  C      -37.742    -115.342      43.671
  O      -37.678    -116.536      43.978
  N      -38.953    -114.696      43.605
  C      -39.007    -113.487      43.138
  N      -40.232    -112.895      43.100
  C      -37.823    -112.755      42.650
  C      -36.655    -113.378      42.788
  O      -32.554    -114.875      38.899
  O      -34.416    -113.082      38.761
  H      -36.687    -117.238      42.267
  H      -34.325    -113.110      37.779
  H      -37.924    -111.770      42.215
  H      -35.728    -112.917      42.461
  H      -35.367    -115.995      44.347
  H      -35.210    -115.617      41.297
  H      -33.033    -116.682      41.425
  H      -32.286    -115.246      43.712
  H      -41.015    -113.429      43.457
  H      -32.095    -113.221      42.446
  H      -40.373    -111.931      42.830
  H      -31.655    -114.552      41.366
  P      -32.500    -118.771      43.016
  C      -34.503    -120.344      43.306
  O      -33.591    -119.765      42.389
  O      -31.687    -119.350      44.126
  O      -31.580    -118.400      41.755
  H      -30.902    -119.092      41.633
  H      -35.351    -120.761      42.753
  H      -34.873    -119.599      44.017
  H      -34.006    -121.149      43.853
  H      -31.722    -110.334      39.329
  H      -32.983    -110.871      40.413
  H      -33.273    -110.822      38.690

 3  4  5  6  7  8  9  10  11  12  13  23  27  28  29  30  32 0
 6-311+G(2d,p)
 ****
 34  35 0
 6-311+G(2d,p)
 ****
 1  2  14  15  16  17  18  19  20  21  22  24  25  26 0
 3-21G
 ****
 31  33  36  37  38  39  40  41  42  43  44  45  46 0
 3-21G
 ****


