%nproc=1
%NoSave
%Mem=1900MB
#P OB98/GEN NMR

erre ene a

0 1
  C      353.032    -449.359     154.458
  O      353.522    -450.679     154.351
  H      352.797    -449.152     155.505
  H      352.116    -449.261     153.870
  H      353.775    -448.634     154.112
  P      354.293    -451.069     152.998
  C      352.519    -452.889     152.475
  O      353.894    -452.588     152.662
  C      352.046    -453.904     153.518
  O      351.983    -453.237     154.817
  C      350.656    -454.502     153.232
  O      350.653    -455.877     153.641
  C      349.756    -453.722     154.173
  O      348.558    -454.427     154.478
  C      350.688    -453.540     155.367
  N      348.905    -452.704     159.986
  C      349.479    -453.832     159.438
  N      349.542    -454.936     160.218
  N      349.957    -453.883     158.220
  C      349.852    -452.703     157.555
  C      349.298    -451.519     157.983
  C      348.760    -451.483     159.327
  O      348.218    -450.522     159.862
  N      349.331    -450.577     156.984
  C      349.879    -451.196     155.955
  N      350.212    -452.489     156.252
  O      355.815    -451.176     153.482
  O      354.132    -450.102     151.871
  H      348.801    -455.303     154.843
  H      356.275    -450.330     153.322
  H      348.536    -452.725     160.922
  H      350.038    -450.762     154.977
  H      350.778    -454.451     155.977
  H      349.491    -452.756     153.727
  H      349.222    -454.967     161.175
  H      350.346    -454.426     152.185
  H      349.997    -455.758     159.841
  H      352.798    -454.698     153.602
  H      352.376    -453.316     151.477
  H      351.935    -451.967     152.545
  P      350.416    -456.996     152.515
  C      348.730    -458.641     153.624
  O      350.074    -458.386     153.240
  O      351.885    -457.239     151.932
  O      349.463    -456.585     151.443
  H      351.834    -457.438     150.981
  H      348.669    -459.602     154.091
  H      348.102    -458.625     152.758
  H      348.407    -457.889     154.313

 6  7  8  9  10  11  12  13  14  15  26  29  33  34 0
 6-311+G(2d,p)
 ****
 36  38  39  40  41 0
 6-311+G(2d,p)
 ****
 1  2  3  4  5  16  17  18  19  20  21  22  23  24  25 0
 3-21G
 ****
 27  28  30  31  32  35  37  42  43  44  45  46  47 0
 3-21G
 ****
 48  49 0
 3-21G
 ****


