%nproc=1
%NoSave
%Mem=1900MB
#P OB98/GEN NMR

erre ene a

0 1
  C        1.092    -188.420     -61.314
  O        0.233    -189.034     -60.379
  H        0.996    -187.335     -61.219
  H        0.800    -188.712     -62.325
  H        2.137    -188.695     -61.140
  P        0.496    -190.559     -59.979
  C       -1.990    -190.838     -59.334
  O       -0.899    -191.351     -60.090
  C       -3.329    -191.376     -59.841
  O       -3.656    -190.744     -61.098
  C       -3.300    -192.883     -60.096
  O       -3.597    -193.678     -58.957
  C       -4.373    -193.041     -61.170
  O       -5.675    -193.229     -60.587
  C       -4.313    -191.711     -61.932
  N       -3.739    -194.307     -66.302
  C       -4.443    -194.664     -65.165
  N       -5.029    -195.880     -65.193
  N       -4.537    -193.902     -64.107
  C       -3.814    -192.763     -64.190
  C       -3.064    -192.311     -65.254
  C       -3.027    -193.125     -66.451
  O       -2.435    -192.843     -67.488
  N       -2.435    -191.121     -64.958
  C       -2.739    -190.907     -63.694
  N       -3.634    -191.831     -63.207
  O        0.729    -190.495     -58.392
  O        1.661    -191.213     -60.657
  H       -5.972    -192.369     -60.228
  H        1.348    -191.197     -58.125
  H       -3.728    -194.919     -67.095
  H       -2.371    -190.081     -63.098
  H       -5.319    -191.326     -62.141
  H       -4.179    -193.922     -61.790
  H       -4.919    -196.541     -65.945
  H       -2.341    -193.185     -60.526
  H       -5.392    -196.258     -64.314
  H       -4.120    -191.101     -59.130
  H       -1.955    -189.753     -59.438
  H       -1.862    -191.072     -58.274
  P       -2.805    -195.037     -58.675
  C       -4.622    -195.762     -56.929
  O       -3.821    -196.090     -58.042
  O       -1.855    -194.653     -57.449
  O       -2.032    -195.582     -59.832
  H       -0.955    -194.446     -57.759
  H       -5.228    -196.604     -56.665
  H       -5.252    -194.933     -57.175
  H       -3.995    -195.501     -56.103

 6  7  8  9  10  11  12  13  14  15  26  29  33  34 0
 6-311+G(2d,p)
 ****
 36  38  39  40  41 0
 6-311+G(2d,p)
 ****
 1  2  3  4  5  16  17  18  19  20  21  22  23  24  25 0
 3-21G
 ****
 27  28  30  31  32  35  37  42  43  44  45  46  47 0
 3-21G
 ****
 48  49 0
 3-21G
 ****


