%nproc=1
%NoSave
%Mem=1900MB
#P OB98/GEN NMR

erre ene a

0 1
  C       16.137      25.269     -88.669
  O       16.408      25.914     -87.444
  H       16.959      25.472     -89.360
  H       15.212      25.663     -89.099
  H       16.051      24.188     -88.537
  P       15.539      25.526     -86.157
  C       13.348      26.344     -85.064
  O       14.288      26.530     -86.113
  C       12.665      27.670     -84.706
  O       13.668      28.602     -84.226
  C       12.009      28.313     -85.934
  O       10.894      29.128     -85.582
  C       13.116      29.200     -86.479
  O       12.630      30.271     -87.289
  C       13.798      29.660     -85.192
  N       17.188      32.846     -87.279
  C       15.829      32.745     -87.506
  N       15.306      33.612     -88.407
  N       15.059      31.864     -86.923
  C       15.731      31.019     -86.104
  C       17.077      31.003     -85.816
  C       17.912      32.006     -86.442
  O       19.125      32.124     -86.293
  N       17.392      29.989     -84.946
  C       16.242      29.389     -84.711
  N       15.199      29.993     -85.371
  O       16.434      26.037     -84.929
  O       15.198      24.073     -86.022
  H       11.919      29.912     -87.851
  H       16.192      25.563     -84.114
  H       17.729      33.561     -87.732
  H       16.107      28.532     -84.063
  H       13.298      30.547     -84.785
  H       13.766      28.588     -87.111
  H       15.890      34.164     -89.014
  H       11.694      27.581     -86.674
  H       14.400      33.352     -88.810
  H       11.956      27.518     -83.885
  H       13.901      25.953     -84.206
  H       12.609      25.592     -85.344
  P        9.418      28.568     -85.857
  C        7.872      28.243     -87.980
  O        9.141      28.518     -87.428
  O        8.464      29.738     -85.336
  O        9.120      27.261     -85.187
  H        7.937      29.433     -84.573
  H        7.935      28.264     -89.048
  H        7.172      28.981     -87.649
  H        7.547      27.275     -87.661

 6  7  8  9  10  11  12  13  14  15  26  29  33  34 0
 6-311+G(2d,p)
 ****
 36  38  39  40  41 0
 6-311+G(2d,p)
 ****
 1  2  3  4  5  16  17  18  19  20  21  22  23  24  25 0
 3-21G
 ****
 27  28  30  31  32  35  37  42  43  44  45  46  47 0
 3-21G
 ****
 48  49 0
 3-21G
 ****


