%nproc=1
%NoSave
%Mem=1900MB
#P OB98/GEN NMR

erre ene a

0 1
  C     -329.326      70.939     582.189
  O     -328.765      72.195     581.862
  H     -330.411      70.997     582.073
  H     -329.094      70.684     583.227
  H     -328.938      70.166     581.519
  P     -327.170      72.326     581.995
  C     -327.330      72.250     584.584
  O     -326.785      71.665     583.408
  C     -326.276      72.293     585.690
  O     -326.080      70.983     586.257
  C     -324.907      72.784     585.235
  O     -324.850      74.201     585.203
  C     -324.005      72.185     586.311
  O     -324.017      72.988     587.510
  C     -324.668      70.822     586.556
  N     -320.912      67.459     586.249
  C     -321.209      68.377     587.238
  N     -320.340      68.444     588.272
  N     -322.249      69.165     587.211
  C     -323.007      69.008     586.098
  C     -322.826      68.125     585.057
  C     -321.685      67.240     585.115
  O     -321.403      66.359     584.303
  N     -323.815      68.260     584.114
  C     -324.570      69.243     584.568
  N     -324.109      69.744     585.761
  O     -326.943      73.893     582.247
  O     -326.390      71.837     580.822
  H     -324.929      73.058     587.837
  H     -326.079      74.153     581.873
  H     -320.102      66.868     586.336
  H     -325.453      69.628     584.073
  H     -324.588      70.512     587.608
  H     -322.969      72.128     585.983
  H     -319.387      68.123     588.189
  H     -324.646      72.351     584.258
  H     -320.540      69.128     588.991
  H     -326.670      72.942     586.487
  H     -328.181      71.651     584.919
  H     -327.674      73.264     584.352
  P     -323.844      74.883     584.156
  C     -322.014      75.137     585.990
  O     -322.364      74.615     584.719
  O     -324.054      76.449     584.403
  O     -324.072      74.500     582.730
  H     -323.700      76.957     583.648
  H     -321.002      74.873     586.218
  H     -322.665      74.729     586.735
  H     -322.110      76.203     585.977

 6  7  8  9  10  11  12  13  14  15  26  29  33  34 0
 6-311+G(2d,p)
 ****
 36  38  39  40  41 0
 6-311+G(2d,p)
 ****
 1  2  3  4  5  16  17  18  19  20  21  22  23  24  25 0
 3-21G
 ****
 27  28  30  31  32  35  37  42  43  44  45  46  47 0
 3-21G
 ****
 48  49 0
 3-21G
 ****


