%nproc=1
%NoSave
%Mem=1900MB
#P OB98/GEN NMR

erre ene a

0 1
  C     -287.660      -2.384     -85.161
  O     -286.673      -3.388     -85.035
  H     -287.719      -1.831     -84.216
  H     -288.635      -2.832     -85.363
  H     -287.401      -1.683     -85.960
  P     -286.287      -4.261     -86.325
  C     -284.462      -2.522     -86.862
  O     -285.563      -3.270     -87.356
  C     -283.153      -3.214     -87.240
  O     -283.109      -3.461     -88.664
  C     -281.907      -2.395     -86.921
  O     -281.627      -2.418     -85.534
  C     -280.880      -3.089     -87.805
  O     -280.417      -4.305     -87.200
  C     -281.720      -3.398     -89.070
  N     -281.526      -2.406     -90.137
  C     -280.338      -2.508     -90.854
  O     -279.477      -3.362     -90.628
  N     -280.145      -1.555     -91.818
  C     -280.965      -0.488     -92.067
  O     -280.647       0.458     -92.782
  C     -282.238      -0.479     -91.329
  C     -282.449      -1.418     -90.397
  O     -287.390      -5.085     -86.904
  O     -285.078      -5.181     -85.811
  H     -285.416      -6.076     -85.611
  H     -281.211      -4.844     -87.018
  H     -279.265      -1.588     -92.315
  H     -282.946       0.315     -91.541
  H     -283.371      -1.413     -89.821
  H     -281.460      -4.386     -89.470
  H     -280.000      -2.466     -87.989
  H     -282.037      -1.362     -87.273
  H     -283.116      -4.185     -86.727
  H     -284.545      -2.469     -85.770
  H     -284.499      -1.507     -87.275
  P     -280.747      -1.272     -84.845
  C     -282.879       0.117     -84.505
  O     -281.542       0.113     -84.993
  O     -279.321      -1.222     -85.279
  O     -280.858      -1.586     -83.276
  H     -279.958      -1.638     -82.895
  H     -283.310       1.085     -84.654
  H     -282.878      -0.116     -83.461
  H     -283.454      -0.615     -85.033

 6  7  8  9  10  11  12  13  14  15  16  27  31  32  33  34  35 0
 6-311+G(2d,p)
 ****
 36  37 0
 6-311+G(2d,p)
 ****
 1  2  3  4  5  17  18  19  20  21  22  23  24  25 0
 3-21G
 ****
 26  28  29  30  38  39  40  41  42  43  44  45 0
 3-21G
 ****


