%nproc=1
%NoSave
%Mem=1900MB
#P OB98/GEN NMR

erre ene a

0 1
  C      889.718    -891.070    -899.160
  O      890.235    -891.080    -897.830
  P      889.159    -891.310    -896.640
  C      889.648    -893.800    -896.000
  O      888.749    -892.870    -896.640
  C      889.192    -895.250    -896.220
  O      887.751    -895.320    -896.040
  C      889.493    -895.820    -897.610
  O      889.867    -897.200    -897.460
  C      888.156    -895.760    -898.320
  O      888.089    -896.700    -899.400
  C      887.219    -896.070    -897.150
  N      882.815    -897.420    -899.270
  C      883.974    -898.150    -899.060
  N      883.936    -899.420    -899.530
  N      885.035    -897.680    -898.480
  C      884.895    -896.420    -898.040
  C      883.807    -895.580    -898.140
  C      882.646    -896.110    -898.840
  O      881.607    -895.500    -899.080
  N      884.038    -894.350    -897.580
  C      885.281    -894.440    -897.130
  N      885.845    -895.680    -897.390
  O      887.854    -890.580    -897.180
  O      889.591    -890.770    -895.330
  H      887.148    -896.850    -899.590
  H      887.548    -889.900    -896.560
  H      882.026    -897.810    -899.720
  H      885.817    -893.650    -896.620
  H      887.227    -897.120    -896.890
  H      888.004    -894.760    -898.730
  H      883.151    -899.870    -899.940
  H      890.282    -895.290    -898.150
  H      884.781    -900.000    -899.380
  H      889.646    -895.860    -895.430
  H      889.681    -893.580    -894.930
  H      890.644    -893.650    -896.410
  P      891.296    -897.640    -898.000
  C      892.509    -897.260    -895.720
  O      892.370    -896.880    -897.080
  O      891.413    -896.870    -899.400
  O      891.499    -899.110    -898.140
  H      892.025    -897.360    -900.000
  H      891.978    -898.190    -895.500
  H      892.101    -896.490    -895.070
  H      893.577    -897.390    -895.480
  H      890.518    -890.911    -899.852
  H      889.000    -890.283    -899.258
  H      889.248    -892.009    -899.367

 3  4  5  6  7  8  9  10  11  12  23  26  30  31  33  0
 6-311+G(2d,p)
 ****
 35  36  37  38 0
 6-311+G(2d,p)
 ****
 1  2  13  14  15  16  17  18  19  20  21  22  24  25  27  28  29 0
 3-21G
 ****
 32  34  39  40  41  42  43  44  45  46  47  48  49 0
 3-21G
 ****


