%nproc=1
%NoSave
%Mem=1900MB
#P OB98/GEN NMR

erre ene a

0 1
  C     -264.724      26.771      -0.346
  O     -266.066      27.173      -0.580
  P     -266.883      26.395      -1.724
  C     -266.588      26.209      -4.296
  O     -266.329      26.965      -3.117
  C     -265.996      26.899      -5.515
  O     -266.636      28.177      -5.714
  C     -264.510      27.208      -5.406
  O     -263.708      26.073      -5.706
  C     -264.352      28.283      -6.479
  O     -264.235      27.665      -7.772
  C     -265.683      29.046      -6.368
  N     -264.381      33.942      -6.520
  C     -264.357      32.988      -7.519
  N     -263.954      33.404      -8.740
  N     -264.696      31.739      -7.341
  C     -265.115      31.474      -6.076
  C     -265.184      32.334      -5.001
  C     -264.755      33.702      -5.202
  O     -264.690      34.576      -4.337
  N     -265.673      31.700      -3.887
  C     -265.942      30.474      -4.297
  N     -265.590      30.280      -5.609
  O     -268.350      27.034      -1.619
  O     -266.915      24.911      -1.582
  H     -263.422      27.126      -7.763
  H     -269.012      26.400      -1.957
  H     -264.130      34.892      -6.719
  H     -266.382      29.705      -3.680
  H     -266.090      29.279      -7.362
  H     -263.463      28.902      -6.337
  H     -263.807      34.377      -8.972
  H     -264.259      27.630      -4.432
  H     -263.964      32.726      -9.495
  H     -266.198      26.276      -6.397
  H     -267.669      26.110      -4.434
  H     -266.161      25.209      -4.174
  P     -262.363      25.897      -4.848
  C     -260.281      27.410      -4.475
  O     -261.448      27.145      -5.238
  O     -261.641      24.650      -5.553
  O     -262.592      25.671      -3.391
  H     -261.055      24.196      -4.913
  H     -259.801      26.482      -4.149
  H     -260.553      28.005      -3.593
  H     -259.577      27.974      -5.084
  H     -264.304      27.369       0.436
  H     -264.152      26.901      -1.241
  H     -264.705      25.741      -0.057

 3  4  5  6  7  8  9  10  11  12  23  26  30  31  33  0
 6-311+G(2d,p)
 ****
 35  36  37  38 0
 6-311+G(2d,p)
 ****
 1  2  13  14  15  16  17  18  19  20  21  22  24  25  27  28  29 0
 3-21G
 ****
 32  34  39  40  41  42  43  44  45  46  47  48  49 0
 3-21G
 ****


