%nproc=1
%NoSave
%Mem=1900MB
#P OB98/GEN NMR

erre ene a

0 1
  C     -133.659      44.609     -21.290
  O     -134.493      44.039     -22.302
  P     -134.323      42.503     -22.732
  C     -136.085      41.259     -21.353
  O     -135.752      41.772     -22.638
  C     -137.557      40.849     -21.223
  O     -138.417      42.015     -21.154
  C     -138.084      39.969     -22.361
  O     -139.048      39.096     -21.765
  C     -138.757      40.982     -23.267
  O     -139.681      40.384     -24.167
  C     -139.365      41.939     -22.233
  N     -139.653      43.255     -22.798
  C     -140.973      43.510     -23.167
  O     -141.827      42.628     -23.069
  N     -141.289      44.741     -23.688
  C     -140.347      45.604     -23.910
  N     -140.717      46.797     -24.450
  C     -138.924      45.345     -23.615
  C     -138.655      44.167     -23.056
  O     -133.211      41.781     -22.044
  O     -134.052      42.575     -24.311
  H     -140.222      39.736     -23.668
  H     -133.490      41.823     -24.576
  H     -138.171      46.084     -23.842
  H     -137.642      43.883     -22.797
  H     -140.298      41.528     -21.827
  H     -138.000      41.503     -23.865
  H     -137.302      39.400     -22.867
  H     -137.666      40.322     -20.266
  H     -141.699      46.925     -24.662
  H     -135.860      42.027     -20.605
  H     -140.056      47.489     -24.768
  H     -135.441      40.401     -21.135
  P     -138.932      37.503     -21.871
  C     -136.969      37.271     -20.246
  O     -138.336      36.988     -20.477
  O     -138.207      37.005     -23.079
  O     -140.446      36.976     -21.843
  H     -140.473      36.061     -22.180
  H     -136.736      37.068     -19.198
  H     -136.747      38.320     -20.462
  H     -136.347      36.631     -20.879
  H     -133.924      45.636     -21.146
  H     -132.635      44.544     -21.593
  H     -133.794      44.074     -20.373

 3  4  5  6  7  8  9  10  11  12  13  23  27  28  29  30  32 0
 6-311+G(2d,p)
 ****
 34  35 0
 6-311+G(2d,p)
 ****
 1  2  14  15  16  17  18  19  20  21  22  24  25  26 0
 3-21G
 ****
 31  33  36  37  38  39  40  41  42  43  44  45  46 0
 3-21G
 ****


