%nproc=1
%NoSave
%Mem=1900MB
#P OB98/GEN NMR

erre ene a

0 1
  C       -8.249     382.299     354.972
  O       -7.029     381.964     354.333
  H       -9.031     382.382     354.214
  H       -8.167     383.255     355.494
  H       -8.527     381.513     355.676
  P       -5.678     382.059     355.191
  C       -4.723     383.539     353.300
  O       -4.518     382.394     354.127
  C       -3.398     384.116     352.805
  O       -3.631     385.206     351.888
  C       -2.526     384.705     353.906
  O       -2.019     383.767     354.829
  C       -1.554     385.564     353.115
  O       -0.473     384.809     352.579
  C       -2.465     386.074     351.962
  N       -2.843     387.468     352.130
  C       -1.795     388.368     352.282
  O       -0.607     388.034     352.310
  N       -2.149     389.679     352.451
  C       -3.428     390.161     352.518
  O       -3.685     391.351     352.686
  C       -4.500     389.163     352.384
  C       -4.162     387.875     352.193
  O       -5.377     380.872     356.060
  O       -5.828     383.429     356.004
  H        0.050     384.478     353.331
  H       -5.179     383.481     356.748
  H       -1.400     390.350     352.553
  H       -5.523     389.505     352.444
  H       -4.932     387.118     352.089
  H       -1.950     385.968     350.992
  H       -1.128     386.367     353.717
  H       -3.146     385.400     354.501
  H       -2.862     383.326     352.257
  H       -5.249     384.296     353.904
  H       -5.361     383.264     352.454
  P       -2.147     383.923     356.414
  C        0.020     385.365     356.686
  O       -0.679     384.174     357.017
  O       -3.040     382.956     357.118
  O       -2.817     385.390     356.546
  H       -3.407     385.371     357.329
  H        0.974     385.366     357.171
  H       -0.546     386.213     357.011
  H        0.159     385.414     355.626

 6  7  8  9  10  11  12  13  14  15  16  26  31  32  33  34  35 0
 6-311+G(2d,p)
 ****
 36  37 0
 6-311+G(2d,p)
 ****
 1  2  3  4  5  17  18  19  20  21  22  23  24  25 0
 3-21G
 ****
 27  28  29  30  38  39  40  41  42  43  44  45 0
 3-21G
 ****


