%nproc=1
%NoSave
%Mem=1900MB
#P OB98/GEN NMR

erre ene a

0 1
  C      194.575     156.915    -139.710
  O      194.353     157.890    -140.706
  H      195.322     156.202    -140.072
  H      193.648     156.374    -139.500
  H      194.949     157.383    -138.796
  P      193.280     159.035    -140.373
  C      191.477     158.123    -142.002
  O      191.833     158.387    -140.652
  C      190.055     157.568    -142.079
  O      189.633     157.543    -143.471
  C      189.914     156.138    -141.531
  O      188.658     156.027    -140.852
  C      189.873     155.293    -142.788
  O      189.238     154.035    -142.571
  C      189.121     156.226    -143.733
  N      188.470     152.494    -147.054
  C      188.131     152.570    -145.714
  N      187.530     151.493    -145.169
  N      188.366     153.624    -144.969
  C      188.950     154.641    -145.648
  C      189.340     154.684    -146.967
  C      189.095     153.504    -147.773
  O      189.391     153.369    -148.957
  N      189.932     155.887    -147.268
  C      189.894     156.571    -146.136
  N      189.302     155.857    -145.128
  O      193.455     160.073    -141.579
  O      193.429     159.689    -139.042
  H      189.239     153.548    -143.424
  H      193.245     160.984    -141.292
  H      188.276     151.656    -147.575
  H      190.281     157.573    -145.996
  H      188.037     156.227    -143.544
  H      190.891     155.106    -143.153
  H      187.288     150.659    -145.689
  H      190.724     155.850    -140.859
  H      187.265     151.531    -144.192
  H      189.380     158.257    -141.556
  H      192.179     157.393    -142.419
  H      191.544     159.053    -142.579
  P      188.683     155.962    -139.248
  C      188.800     153.378    -139.030
  O      189.446     154.622    -138.796
  O      187.152     155.666    -138.876
  O      189.162     157.221    -138.602
  H      186.747     156.461    -138.487
  H      189.423     152.581    -138.680
  H      188.625     153.259    -140.079
  H      187.866     153.357    -138.508

 6  7  8  9  10  11  12  13  14  15  26  29  33  34 0
 6-311+G(2d,p)
 ****
 36  38  39  40  41 0
 6-311+G(2d,p)
 ****
 1  2  3  4  5  16  17  18  19  20  21  22  23  24  25 0
 3-21G
 ****
 27  28  30  31  32  35  37  42  43  44  45  46  47 0
 3-21G
 ****
 48  49 0
 3-21G
 ****


