%nproc=1
%NoSave
%Mem=1900MB
#P OB98/GEN NMR

erre ene a

0 1
  C     -147.726     143.789     523.524
  O     -147.698     145.104     523.030
  P     -148.913     146.133     523.172
  C     -147.217     148.080     522.746
  O     -148.494     147.514     522.474
  C     -147.176     149.563     522.355
  O     -147.506     149.677     520.949
  C     -148.224     150.383     523.133
  O     -147.755     151.647     523.579
  C     -149.422     150.373     522.194
  O     -150.354     151.415     522.453
  C     -148.745     150.409     520.826
  N     -152.299     151.227     517.283
  C     -151.605     152.146     518.046
  N     -152.037     153.424     517.980
  N     -150.600     151.830     518.821
  C     -150.353     150.498     518.872
  C     -150.973     149.495     518.160
  C     -152.055     149.862     517.277
  O     -152.773     149.073     516.673
  N     -150.504     148.256     518.514
  C     -149.625     148.504     519.462
  N     -149.522     149.852     519.732
  O     -149.578     146.195     524.507
  O     -149.977     145.531     522.118
  H     -151.116     151.286     521.857
  H     -150.868     145.701     522.483
  H     -153.120     151.526     516.764
  H     -149.056     147.756     520.005
  H     -148.506     151.434     520.528
  H     -149.952     149.428     522.339
  H     -152.894     153.672     517.506
  H     -148.497     149.867     524.061
  H     -151.719     154.063     518.705
  H     -146.156     149.944     522.491
  H     -146.499     147.510     522.146
  H     -146.951     147.951     523.799
  P     -148.382     152.610     524.691
  C     -146.205     153.954     524.560
  O     -147.612     154.013     524.643
  O     -147.912     151.993     526.090
  O     -149.871     152.717     524.646
  H     -148.641     152.060     526.736
  H     -145.797     154.939     524.813
  H     -145.905     153.693     523.546
  H     -145.798     153.218     525.267
  H     -146.797     143.306     523.304
  H     -148.526     143.251     523.061
  H     -147.876     143.809     524.583

 3  4  5  6  7  8  9  10  11  12  23  26  30  31 0
 6-311+G(2d,p)
 ****
 33  35  36  37  38 0
 6-311+G(2d,p)
 ****
 1  2  13  14  15  16  17  18  19  20  21  22  24  25 0
 3-21G
 ****
 27  28  29  32  34  39  40  41  42  43  44  45  46  47  48  49 0
 3-21G
 ****


