%nproc=1
%NoSave
%Mem=1900MB
#P OB98/GEN NMR

erre ene a

0 1
  C      313.945     160.939     -37.432
  O      314.760     162.112     -37.487
  P      314.272     163.418     -36.698
  C      315.793     163.981     -34.683
  O      315.561     164.155     -36.080
  C      317.040     164.760     -34.236
  O      318.212     163.932     -34.441
  C      317.304     166.053     -35.021
  O      316.711     167.259     -34.557
  C      318.812     166.209     -34.829
  O      319.082     166.842     -33.565
  C      319.327     164.776     -34.804
  N      322.833     165.782     -38.395
  C      322.534     166.396     -37.231
  N      321.586     166.060     -36.329
  C      320.910     164.968     -36.722
  C      321.110     164.236     -37.886
  C      322.120     164.685     -38.749
  N      322.420     164.073     -39.944
  N      320.220     163.178     -37.954
  C      319.491     163.285     -36.859
  N      319.881     164.338     -36.076
  O      313.132     163.226     -35.758
  O      313.864     164.411     -37.895
  H      318.548     167.660     -33.544
  H      313.074     164.919     -37.625
  H      323.136     167.264     -36.987
  H      318.680     162.625     -36.596
  H      320.108     164.621     -34.052
  H      319.265     166.845     -35.601
  H      317.078     165.916     -36.088
  H      316.960     164.983     -33.168
  H      315.929     162.914     -34.469
  H      323.129     164.482     -40.525
  H      321.862     163.287     -40.256
  H      314.888     164.293     -34.160
  P      315.892     168.224     -35.545
  C      313.416     167.654     -34.907
  O      314.513     168.542     -34.794
  O      315.733     167.712     -36.938
  O      316.694     169.600     -35.426
  H      316.618     170.038     -34.565
  H      312.668     167.935     -34.162
  H      313.726     166.624     -34.725
  H      312.971     167.746     -35.901
  H      314.403     160.159     -38.004
  H      312.978     161.157     -37.835
  H      313.844     160.622     -36.415

 3  4  5  6  7  8  9  10  11  12  22  25  29  30  31  32 0
 6-311+G(2d,p)
 ****
 33  36  37 0
 6-311+G(2d,p)
 ****
 1  2  13  14  15  16  17  18  19  20  21  23  24  26 0
 3-21G
 ****
 27  28  34  35  38  39  40  41  42  43  44  45  46  47  48 0
 3-21G
 ****


