%nproc=1
%NoSave
%Mem=1900MB
#P OB98/GEN NMR

erre ene a

0 1
  C     -222.023     565.140    -173.598
  O     -222.666     564.071    -174.316
  P     -222.949     562.631    -173.681
  C     -224.401     563.282    -171.650
  O     -224.367     562.650    -172.919
  C     -225.845     563.470    -171.146
  O     -226.441     564.658    -171.754
  C     -226.782     562.284    -171.444
  O     -227.630     562.134    -170.304
  C     -227.557     562.792    -172.657
  O     -228.763     562.089    -172.898
  C     -227.742     564.259    -172.248
  N     -228.180     565.160    -173.313
  C     -229.550     565.453    -173.393
  O     -230.362     564.928    -172.630
  N     -229.975     566.335    -174.362
  C     -229.122     566.864    -175.184
  N     -229.600     567.734    -176.111
  C     -227.676     566.567    -175.148
  C     -227.281     565.724    -174.200
  O     -221.828     562.109    -172.828
  O     -223.199     561.647    -174.928
  H     -222.829     560.761    -174.725
  H     -229.358     562.243    -172.130
  H     -227.002     567.039    -175.844
  H     -226.229     565.481    -174.087
  H     -228.434     564.320    -171.407
  H     -226.925     562.687    -173.550
  H     -226.253     561.343    -171.623
  H     -225.801     563.656    -170.065
  H     -230.611     567.923    -176.099
  H     -223.933     564.272    -171.743
  H     -229.034     568.209    -176.787
  H     -223.822     562.685    -170.932
  P     -227.725     560.710    -169.563
  C     -225.822     560.704    -167.793
  O     -227.191     560.899    -168.066
  O     -226.527     559.900    -170.250
  O     -229.006     559.956    -169.741
  H     -226.704     558.946    -170.201
  H     -225.464     561.519    -167.145
  H     -225.206     560.700    -168.703
  H     -225.687     559.751    -167.261
  H     -221.947     565.999    -174.231
  H     -221.044     564.830    -173.298
  H     -222.601     565.386    -172.731

 3  4  5  6  7  8  9  10  11  12  13  24  27  28  29  30  32 0
 6-311+G(2d,p)
 ****
 34  35 0
 6-311+G(2d,p)
 ****
 1  2  14  15  16  17  18  19  20  21  22  23  25  26 0
 3-21G
 ****
 31  33  36  37  38  39  40  41  42  43  44  45  46 0
 3-21G
 ****


