%nproc=1
%NoSave
%Mem=1900MB
#P OB98/GEN NMR

erre ene a

0 1
  C     -156.485     148.549      -8.265
  O     -155.457     147.698      -7.802
  H     -156.052     149.525      -8.501
  H     -157.248     148.682      -7.494
  H     -156.941     148.141      -9.173
  P     -155.835     146.195      -7.383
  C     -156.020     146.470      -4.810
  O     -156.715     146.369      -6.046
  C     -157.011     146.461      -3.646
  O     -157.947     147.553      -3.745
  C     -157.881     145.216      -3.557
  O     -157.194     144.061      -3.096
  C     -158.930     145.697      -2.567
  O     -158.374     145.695      -1.236
  C     -159.173     147.139      -3.076
  N     -160.313     147.230      -3.985
  C     -161.580     147.059      -3.421
  O     -161.708     146.830      -2.220
  N     -162.685     147.111      -4.241
  C     -162.532     147.297      -5.520
  N     -163.656     147.335      -6.281
  C     -161.212     147.465      -6.157
  C     -160.156     147.422      -5.342
  O     -154.693     145.237      -7.280
  O     -156.948     145.752      -8.444
  H     -158.809     146.413      -0.751
  H     -157.209     144.821      -8.237
  H     -161.135     147.587      -7.232
  H     -159.155     147.532      -5.742
  H     -159.330     147.826      -2.235
  H     -159.822     145.074      -2.539
  H     -158.381     145.017      -4.517
  H     -156.431     146.614      -2.724
  H     -164.546     147.220      -5.817
  H     -155.437     147.395      -4.820
  H     -163.629     147.400      -7.294
  H     -155.342     145.624      -4.690
  P     -157.516     142.676      -3.849
  C     -159.142     141.955      -1.928
  O     -158.955     142.200      -3.319
  O     -156.491     141.655      -3.168
  O     -157.390     142.717      -5.336
  H     -155.705     141.525      -3.734
  H     -160.152     141.648      -1.753
  H     -158.941     142.850      -1.378
  H     -158.474     141.182      -1.609

 6  7  8  9  10  11  12  13  14  15  16  26  30  31  32  33  35 0
 6-311+G(2d,p)
 ****
 37  38 0
 6-311+G(2d,p)
 ****
 1  2  3  4  5  17  18  19  20  21  22  23  24  25 0
 3-21G
 ****
 27  28  29  34  36  39  40  41  42  43  44  45  46 0
 3-21G
 ****


