%nproc=1
%NoSave
%Mem=1900MB
#P OB98/GEN NMR

erre ene a

0 1
  C      -60.619     671.560     -15.155
  O      -59.983     671.746     -13.911
  H      -60.738     670.487     -15.327
  H      -60.006     671.971     -15.961
  H      -61.606     672.028     -15.158
  P      -59.640     673.234     -13.416
  C      -61.486     672.869     -11.670
  O      -60.969     673.746     -12.662
  C      -62.208     673.648     -10.570
  O      -61.266     674.528      -9.896
  C      -63.363     674.520     -11.086
  O      -64.518     674.330     -10.269
  C      -62.843     675.940     -10.915
  O      -63.886     676.905     -10.801
  C      -61.952     675.773      -9.680
  N      -61.035     676.891      -9.509
  C      -61.301     677.751      -8.439
  O      -62.262     677.535      -7.697
  N      -60.511     678.854      -8.266
  C      -59.565     679.109      -9.115
  N      -58.836     680.238      -8.903
  C      -59.267     678.246     -10.277
  C      -60.031     677.163     -10.409
  O      -59.131     674.143     -14.484
  O      -58.604     673.038     -12.212
  H      -64.249     677.076     -11.698
  H      -58.090     673.870     -12.096
  H      -58.471     678.504     -10.960
  H      -59.888     676.469     -11.231
  H      -62.559     675.676      -8.769
  H      -62.228     676.208     -11.784
  H      -63.625     674.312     -12.123
  H      -62.558     672.935      -9.813
  H      -59.080     680.805      -8.098
  H      -60.657     672.292     -11.245
  H      -58.093     680.551      -9.509
  H      -62.195     672.185     -12.147
  P      -65.492     673.124     -10.681
  C      -65.123     672.002      -8.369
  O      -65.111     671.849      -9.781
  O      -64.985     672.728     -12.148
  O      -66.936     673.497     -10.680
  H      -65.655     672.987     -12.810
  H      -64.851     671.076      -7.908
  H      -66.104     672.285      -8.049
  H      -64.423     672.761      -8.086

 6  7  8  9  10  11  12  13  14  15  16  26  30  31  32  33  35 0
 6-311+G(2d,p)
 ****
 37  38 0
 6-311+G(2d,p)
 ****
 1  2  3  4  5  17  18  19  20  21  22  23  24  25 0
 3-21G
 ****
 27  28  29  34  36  39  40  41  42  43  44  45  46 0
 3-21G
 ****


