%nproc=1
%NoSave
%Mem=1900MB
#P OB98/GEN NMR

erre ene a

0 1
  C     -212.470     232.487     261.113
  O     -212.173     232.757     262.469
  H     -213.557     232.443     260.994
  H     -212.046     231.522     260.818
  H     -212.075     233.283     260.475
  P     -210.618     232.882     262.850
  C     -210.651     230.570     264.013
  O     -210.115     231.362     262.963
  C     -210.387     229.087     263.749
  O     -210.662     228.305     264.930
  C     -211.248     228.482     262.643
  O     -210.717     228.787     261.365
  C     -211.123     227.001     262.967
  O     -209.869     226.498     262.469
  C     -211.117     226.995     264.509
  N     -214.846     223.532     265.193
  C     -213.772     223.542     264.370
  N     -212.849     224.516     264.212
  C     -213.115     225.562     265.010
  C     -214.168     225.689     265.898
  C     -215.066     224.604     265.982
  N     -216.153     224.591     266.825
  N     -214.123     226.908     266.545
  C     -213.026     227.479     266.098
  N     -212.397     226.722     265.139
  O     -210.303     233.776     264.002
  O     -209.999     233.344     261.447
  H     -209.883     225.529     262.558
  H     -210.440     232.883     260.709
  H     -213.633     222.653     263.763
  H     -212.632     228.432     266.439
  H     -210.414     226.253     264.909
  H     -211.910     226.402     262.498
  H     -212.293     228.784     262.741
  H     -209.319     228.972     263.519
  H     -211.728     230.744     264.109
  H     -216.830     223.859     266.702
  H     -216.382     225.443     267.322
  H     -210.163     230.880     264.941
  P     -211.685     229.066     260.116
  C     -210.434     227.366     258.642
  O     -211.683     227.729     259.230
  O     -211.395     230.314     259.360
  O     -213.155     229.076     260.752
  H     -213.700     229.760     260.322
  H     -210.554     226.464     258.078
  H     -209.709     227.211     259.413
  H     -210.103     228.151     257.994

 6  7  8  9  10  11  12  13  14  15  25  28  32  33  34  35 0
 6-311+G(2d,p)
 ****
 36  39  40 0
 6-311+G(2d,p)
 ****
 1  2  3  4  5  16  17  18  19  20  21  22  23  24 0
 3-21G
 ****
 26  27  29  30  31  37  38  41  42  43  44  45  46  47 0
 3-21G
 ****
 48 0
 3-21G
 ****


