%nproc=1
%NoSave
%Mem=1900MB
#P OB98/GEN NMR

erre ene a

0 1
  C     -294.148     161.005    -136.048
  O     -295.560     161.039    -136.124
  H     -293.842     160.032    -135.643
  H     -293.784     161.787    -135.379
  H     -293.702     161.127    -137.040
  P     -296.268     162.306    -136.809
  C     -297.061     161.064    -138.926
  O     -296.209     162.068    -138.394
  C     -297.997     161.678    -139.969
  O     -297.241     162.125    -141.120
  C     -299.040     160.707    -140.508
  O     -300.078     160.504    -139.565
  C     -299.460     161.423    -141.788
  O     -300.379     162.488    -141.505
  C     -298.101     161.992    -142.277
  N     -297.472     161.149    -143.308
  C     -297.702     161.530    -144.626
  O     -298.386     162.507    -144.946
  N     -297.147     160.722    -145.584
  C     -296.483     159.547    -145.351
  O     -296.199     158.739    -146.233
  C     -296.211     159.235    -143.933
  C     -296.731     160.033    -142.991
  O     -295.791     163.645    -136.350
  O     -297.823     162.093    -136.478
  H     -298.074     162.668    -135.730
  H     -300.503     162.974    -142.345
  H     -297.343     160.958    -146.547
  H     -295.633     158.349    -143.709
  H     -296.564     159.808    -141.938
  H     -298.238     162.997    -142.693
  H     -299.953     160.754    -142.497
  H     -298.565     159.752    -140.774
  H     -298.482     162.557    -139.523
  H     -297.658     160.647    -138.103
  H     -296.452     160.270    -139.372
  P     -301.112     159.289    -139.714
  C     -300.168     158.268    -137.558
  O     -300.516     158.031    -138.919
  O     -301.541     158.995    -141.113
  O     -302.365     159.728    -138.814
  H     -303.182     159.670    -139.352
  H     -299.783     157.368    -137.126
  H     -301.037     158.580    -137.017
  H     -299.423     159.034    -137.509

 6  7  8  9  10  11  12  13  14  15  16  27  31  32  33  34  35 0
 6-311+G(2d,p)
 ****
 36  37 0
 6-311+G(2d,p)
 ****
 1  2  3  4  5  17  18  19  20  21  22  23  24  25 0
 3-21G
 ****
 26  28  29  30  38  39  40  41  42  43  44  45 0
 3-21G
 ****


