%nproc=1
%NoSave
%Mem=1900MB
#P OB98/GEN NMR

erre ene a

0 1
  C      -30.881      10.904    -126.808
  O      -31.488      12.182    -126.995
  P      -32.333      12.811    -125.786
  C      -30.856      14.919    -125.591
  O      -31.372      13.766    -124.929
  C      -31.068      16.178    -124.731
  O      -32.473      16.533    -124.765
  C      -30.715      16.015    -123.248
  O      -29.378      16.283    -122.839
  C      -31.593      17.095    -122.618
  O      -30.934      18.373    -122.704
  C      -32.846      17.102    -123.488
  N      -37.028      17.420    -120.566
  C      -36.136      18.356    -120.968
  N      -35.048      18.185    -121.746
  C      -34.929      16.902    -122.131
  C      -35.765      15.847    -121.802
  C      -36.861      16.145    -120.976
  N      -37.765      15.199    -120.556
  N      -35.320      14.674    -122.374
  C      -34.218      15.015    -123.022
  N      -33.949      16.351    -122.918
  O      -33.151      11.846    -124.993
  O      -33.275      13.867    -126.540
  H      -30.091      18.280    -122.225
  H      -34.154      13.872    -126.114
  H      -36.314      19.368    -120.616
  H      -33.592      14.330    -123.577
  H      -33.215      18.118    -123.682
  H      -31.778      16.909    -121.553
  H      -31.016      15.028    -122.882
  H      -30.496      17.007    -125.164
  H      -31.355      15.043    -126.554
  H      -38.498      15.484    -119.925
  H      -37.621      14.226    -120.803
  H      -29.802      14.728    -125.802
  P      -28.324      15.108    -122.594
  C      -26.726      16.565    -124.069
  O      -27.213      15.282    -123.738
  O      -28.911      13.742    -122.504
  O      -27.561      15.591    -121.273
  H      -27.006      16.376    -121.395
  H      -25.840      16.451    -124.697
  H      -26.456      17.127    -123.173
  H      -27.491      17.113    -124.630
  H      -30.357      10.624    -127.698
  H      -31.637      10.177    -126.596
  H      -30.193      10.952    -125.990

 3  4  5  6  7  8  9  10  11  12  22  25  29  30  31  32 0
 6-311+G(2d,p)
 ****
 33  36  37 0
 6-311+G(2d,p)
 ****
 1  2  13  14  15  16  17  18  19  20  21  23  24  26 0
 3-21G
 ****
 27  28  34  35  38  39  40  41  42  43  44  45  46  47  48 0
 3-21G
 ****


