%nproc=1
%NoSave
%Mem=1900MB
#P OB98/GEN NMR

erre ene a

0 1
  C      200.715    -157.393    -337.580
  O      200.409    -158.432    -338.515
  P      198.880    -158.873    -338.718
  C      199.429    -160.267    -340.816
  O      198.846    -160.265    -339.519
  C      199.580    -161.702    -341.344
  O      200.574    -162.432    -340.569
  C      198.264    -162.499    -341.255
  O      198.168    -163.430    -342.344
  C      198.439    -163.298    -339.976
  O      197.581    -164.437    -339.941
  C      199.938    -163.615    -340.044
  N      200.174    -167.191    -336.378
  C      199.578    -167.190    -337.591
  N      199.578    -166.205    -338.522
  C      200.291    -165.149    -338.102
  C      200.958    -165.011    -336.894
  C      200.877    -166.093    -336.000
  N      201.457    -166.084    -334.751
  N      201.583    -163.785    -336.812
  C      201.250    -163.166    -337.935
  N      200.502    -163.964    -338.760
  O      197.967    -157.815    -339.244
  O      198.447    -159.318    -337.235
  H      197.916    -165.029    -339.245
  H      197.542    -158.986    -337.053
  H      199.027    -168.086    -337.843
  H      201.521    -162.148    -338.189
  H      200.142    -164.440    -340.737
  H      198.209    -162.664    -339.107
  H      197.357    -161.881    -341.236
  H      199.937    -161.663    -342.383
  H      200.410    -159.783    -340.775
  H      201.245    -166.856    -334.135
  H      201.851    -165.227    -334.397
  H      198.814    -159.657    -341.484
  P      196.768    -163.440    -343.140
  C      197.633    -164.670    -345.284
  O      196.836    -164.706    -344.119
  O      196.440    -162.128    -343.777
  O      195.733    -163.875    -342.000
  H      196.000    -164.668    -341.493
  H      197.643    -165.663    -345.737
  H      198.659    -164.390    -345.041
  H      197.213    -163.958    -346.008
  H      201.772    -157.224    -337.568
  H      200.389    -157.685    -336.603
  H      200.213    -156.493    -337.870

 3  4  5  6  7  8  9  10  11  12  22  25  29  30  31  32 0
 6-311+G(2d,p)
 ****
 33  36  37 0
 6-311+G(2d,p)
 ****
 1  2  13  14  15  16  17  18  19  20  21  23  24  26 0
 3-21G
 ****
 27  28  34  35  38  39  40  41  42  43  44  45  46  47  48 0
 3-21G
 ****


