%nproc=1
%NoSave
%Mem=1900MB
#P OB98/GEN NMR

erre ene a

0 1
  C     -888.260    -594.047     403.333
  O     -889.350    -593.219     403.681
  H     -887.670    -594.254     404.229
  H     -887.610    -593.550     402.605
  H     -888.630    -594.994     402.921
  P     -890.280    -592.633     402.507
  C     -892.490    -593.032     403.793
  O     -891.690    -593.392     402.672
  C     -893.690    -592.193     403.329
  O     -894.430    -592.916     402.333
  C     -894.680    -591.909     404.464
  O     -894.190    -590.893     405.307
  C     -895.910    -591.535     403.644
  O     -895.860    -590.190     403.166
  C     -895.830    -592.553     402.479
  N     -896.660    -593.744     402.680
  C     -897.760    -593.866     401.844
  O     -897.990    -592.999     400.988
  N     -898.610    -594.944     401.995
  C     -898.350    -595.827     402.919
  N     -899.210    -596.869     403.022
  C     -897.180    -595.729     403.814
  C     -896.390    -594.677     403.659
  O     -889.700    -592.669     401.119
  O     -890.600    -591.148     402.998
  H     -896.670    -590.048     402.678
  H     -889.930    -590.520     402.661
  H     -896.990    -596.492     404.563
  H     -895.510    -594.534     404.280
  H     -896.130    -592.076     401.527
  H     -896.830    -591.654     404.247
  H     -894.900    -592.819     405.024
  H     -893.310    -591.263     402.890
  H     -900.000    -596.871     402.401
  H     -891.860    -592.447     404.483
  H     -899.050    -597.678     403.631
  H     -892.850    -593.922     404.325
  P     -894.320    -591.023     406.892
  C     -891.870    -590.242     407.197
  O     -892.810    -591.272     407.438
  O     -895.330    -592.027     407.372
  O     -894.610    -589.522     407.389
  H     -895.550    -589.261     407.184
  H     -890.920    -590.524     407.602
  H     -892.203    -589.339     407.664
  H     -891.776    -590.085     406.143

 6  7  8  9  10  11  12  13  14  15  16  26  30  31  32  33  35 0
 6-311+G(2d,p)
 ****
 37  38 0
 6-311+G(2d,p)
 ****
 1  2  3  4  5  17  18  19  20  21  22  23  24  25 0
 3-21G
 ****
 27  28  29  34  36  39  40  41  42  43  44  45  46 0
 3-21G
 ****


