%nproc=1
%NoSave
%Mem=1900MB
#P OB98/GEN NMR

erre ene a

0 1
  C      512.172    1140.270     109.991
  O      512.312    1139.088     110.754
  P      512.607    1137.680     110.075
  C      510.353    1136.787     110.908
  O      511.170    1137.017     109.767
  C      509.076    1136.029     110.505
  O      508.151    1136.905     109.836
  C      509.316    1134.858     109.541
  O      509.843    1133.743     110.247
  C      507.923    1134.665     108.978
  O      507.106    1133.860     109.857
  C      507.390    1136.113     108.907
  N      507.433    1136.660     107.556
  C      506.752    1135.952     106.589
  O      506.168    1134.871     106.858
  N      506.770    1136.401     105.281
  C      507.439    1137.477     105.001
  N      507.435    1137.877     103.697
  C      508.208    1138.254     106.000
  C      508.160    1137.787     107.236
  O      513.591    1136.811     110.783
  O      513.103    1138.111     108.584
  H      506.229    1133.788     109.431
  H      514.015    1138.486     108.616
  H      508.758    1139.129     105.703
  H      508.697    1138.298     108.044
  H      506.342    1136.155     109.251
  H      507.943    1134.142     108.013
  H      509.995    1135.177     108.761
  H      508.596    1135.652     111.439
  H      506.919    1137.298     103.034
  H      510.067    1137.734     111.336
  H      507.952    1138.674     103.341
  H      510.911    1136.212     111.659
  P      510.559    1132.570     109.426
  C      509.020    1130.723     110.342
  O      509.464    1131.413     109.195
  O      511.876    1132.126     109.978
  O      510.748    1133.196     107.953
  H      511.648    1132.982     107.646
  H      508.077    1130.228     110.114
  H      508.843    1131.430     111.171
  H      509.759    1129.977     110.636
  H      511.979    1141.095     110.644
  H      511.357    1140.158     109.306
  H      513.074    1140.451     109.445

 3  4  5  6  7  8  9  10  11  12  13  23  27  28  29  30  32 0
 6-311+G(2d,p)
 ****
 34  35 0
 6-311+G(2d,p)
 ****
 1  2  14  15  16  17  18  19  20  21  22  24  25  26 0
 3-21G
 ****
 31  33  36  37  38  39  40  41  42  43  44  45  46 0
 3-21G
 ****


