%nproc=1
%NoSave
%Mem=1900MB
#P OB98/GEN NMR

erre ene a

0 1
  C     -345.229    -105.163      52.491
  O     -346.236    -105.250      53.498
  P     -346.856    -103.890      54.077
  C     -349.193    -103.708      52.995
  O     -347.839    -103.264      52.974
  C     -350.049    -102.882      52.017
  O     -350.144    -101.523      52.512
  C     -349.479    -102.770      50.598
  O     -349.831    -103.770      49.647
  C     -350.124    -101.469      50.125
  O     -351.456    -101.730      49.643
  C     -350.193    -100.616      51.389
  N     -349.062     -95.630      51.397
  C     -350.240     -96.287      51.293
  N     -350.452     -97.618      51.299
  C     -349.297     -98.288      51.445
  C     -348.025     -97.750      51.565
  C     -347.928     -96.348      51.535
  N     -346.734     -95.676      51.629
  N     -347.083     -98.748      51.688
  C     -347.775     -99.872      51.619
  N     -349.117     -99.647      51.489
  O     -345.883    -102.936      54.684
  O     -347.888    -104.427      55.181
  H     -351.359    -102.285      48.850
  H     -347.877    -103.822      55.948
  H     -351.125     -95.665      51.188
  H     -347.346    -100.864      51.664
  H     -351.134    -100.057      51.464
  H     -349.575    -101.010      49.295
  H     -348.392    -102.658      50.622
  H     -351.061    -103.304      51.983
  H     -349.595    -103.611      54.005
  H     -346.744     -94.671      51.553
  H     -345.869     -96.201      51.673
  H     -349.191    -104.772      52.756
  P     -349.455    -105.307      49.869
  C     -351.966    -105.786      50.431
  O     -350.611    -105.902      50.808
  O     -348.070    -105.554      50.359
  O     -349.780    -105.956      48.443
  H     -350.723    -105.980      48.219
  H     -352.565    -106.431      51.077
  H     -352.111    -106.091      49.392
  H     -352.295    -104.749      50.562
  H     -344.919    -106.148      52.210
  H     -344.389    -104.620      52.872
  H     -345.623    -104.656      51.635

 3  4  5  6  7  8  9  10  11  12  22  25  29  30  31  32 0
 6-311+G(2d,p)
 ****
 33  36  37 0
 6-311+G(2d,p)
 ****
 1  2  13  14  15  16  17  18  19  20  21  23  24  26 0
 3-21G
 ****
 27  28  34  35  38  39  40  41  42  43  44  45  46  47  48 0
 3-21G
 ****


