%nproc=1
%NoSave
%Mem=1900MB
#P OB98/GEN NMR

erre ene a

0 1
  C      227.163    -255.488     380.968
  O      228.373    -254.838     380.627
  H      226.351    -255.045     380.389
  H      226.957    -255.356     382.033
  H      227.226    -256.554     380.733
  P      229.702    -255.378     381.345
  C      231.038    -254.528     383.418
  O      229.786    -254.606     382.750
  C      230.829    -254.188     384.898
  O      230.052    -252.956     384.986
  C      230.045    -255.264     385.672
  O      230.480    -255.247     387.041
  C      228.625    -254.732     385.594
  O      227.807    -255.363     386.552
  C      228.894    -253.249     385.797
  N      224.643    -250.976     387.466
  C      225.607    -251.675     388.107
  N      226.716    -252.242     387.587
  C      226.793    -252.005     386.268
  C      225.892    -251.310     385.482
  C      224.767    -250.786     386.131
  N      223.772    -250.093     385.480
  N      226.310    -251.301     384.160
  C      227.448    -251.974     384.160
  N      227.778    -252.413     385.412
  O      230.878    -254.722     380.478
  O      229.834    -256.860     381.433
  H      226.861    -255.212     386.360
  H      231.157    -255.336     379.776
  H      225.465    -251.796     389.177
  H      228.058    -252.177     383.290
  H      229.143    -253.006     386.837
  H      228.187    -254.926     384.609
  H      230.167    -256.268     385.262
  H      231.798    -253.986     385.364
  H      231.641    -253.752     382.936
  H      231.553    -255.490     383.337
  H      222.982    -249.772     386.015
  H      223.830    -249.972     384.475
  P      230.796    -256.642     387.780
  C      229.529    -258.873     388.251
  O      229.446    -257.480     387.987
  O      231.131    -256.162     389.273
  O      231.947    -257.414     387.218
  H      231.933    -256.611     389.590
  H      228.543    -259.274     388.362
  H      230.083    -259.033     389.153
  H      230.024    -259.361     387.437

 6  7  8  9  10  11  12  13  14  15  25  28  32  33  34  35 0
 6-311+G(2d,p)
 ****
 36  37  40 0
 6-311+G(2d,p)
 ****
 1  2  3  4  5  16  17  18  19  20  21  22  23  24 0
 3-21G
 ****
 26  27  29  30  31  38  39 41  42  43  44  45  46  47  48 0
 3-21G
 ****


