%nproc=1
%NoSave
%Mem=1900MB
#P OB98/GEN NMR

erre ene a

0 1
  C     -388.765     754.841    -298.306
  O     -390.085     755.288    -298.101
  H     -388.077     755.570    -297.873
  H     -388.565     754.758    -299.378
  H     -388.595     753.872    -297.827
  P     -391.287     754.241    -298.227
  C     -390.886     753.054    -295.973
  O     -390.880     752.933    -297.389
  C     -391.318     751.755    -295.288
  O     -392.590     751.312    -295.830
  C     -390.340     750.610    -295.537
  O     -389.226     750.568    -294.659
  C     -391.228     749.388    -295.346
  O     -391.311     749.024    -293.955
  C     -392.586     749.875    -295.857
  N     -394.308     746.061    -298.799
  C     -394.096     746.079    -297.431
  N     -394.319     744.925    -296.781
  N     -393.691     747.138    -296.781
  C     -393.416     748.201    -297.573
  C     -393.572     748.300    -298.939
  C     -394.080     747.137    -299.648
  O     -394.277     747.069    -300.856
  N     -393.198     749.534    -299.403
  C     -392.749     750.156    -298.331
  N     -392.886     749.395    -297.193
  O     -391.177     753.725    -299.742
  O     -392.652     754.787    -297.940
  H     -392.028     748.371    -293.852
  H     -392.052     753.424    -300.053
  H     -394.652     745.233    -299.246
  H     -392.336     751.165    -298.319
  H     -393.403     749.539    -295.207
  H     -390.837     748.511    -295.875
  H     -394.518     744.058    -297.255
  H     -389.987     750.622    -296.569
  H     -393.924     744.819    -295.839
  H     -391.468     751.938    -294.219
  H     -391.579     753.857    -295.726
  H     -389.896     753.359    -295.617
  P     -387.762     750.261    -295.230
  C     -386.778     752.647    -294.895
  O     -387.178     751.642    -295.802
  O     -388.074     749.405    -296.550
  O     -386.863     749.533    -294.297
  H     -387.999     748.454    -296.356
  H     -386.416     753.495    -295.439
  H     -386.001     752.269    -294.264
  H     -387.614     752.939    -294.295

 6  7  8  9  10  11  12  13  14  15  26  29  33  34 0
 6-311+G(2d,p)
 ****
 36  38  39  40  41 0
 6-311+G(2d,p)
 ****
 1  2  3  4  5  16  17  18  19  20  21  22  23  24  25 0
 3-21G
 ****
 27  28  30  31  32  35  37  42  43  44  45  46  47 0
 3-21G
 ****
 48  49 0
 3-21G
 ****


