%nproc=1
%NoSave
%Mem=1900MB
#P OB98/GEN NMR

erre ene a

0 1
  C       67.332    -104.972    -397.073
  O       66.910    -103.869    -396.296
  H       67.883    -104.600    -397.940
  H       66.467    -105.544    -397.425
  H       67.990    -105.615    -396.483
  P       66.028    -104.199    -394.996
  C       67.571    -102.697    -393.578
  O       66.243    -102.931    -394.033
  C       67.565    -101.747    -392.380
  O       67.006    -100.475    -392.803
  C       66.726    -102.250    -391.200
  O       67.354    -101.860    -389.978
  C       65.419    -101.487    -391.353
  O       64.700    -101.391    -390.127
  C       65.919    -100.158    -391.914
  N       64.211     -95.526    -393.161
  C       65.367     -95.944    -392.600
  N       65.751     -97.207    -392.320
  C       64.823     -98.087    -392.742
  C       63.600     -97.813    -393.329
  C       63.296     -96.454    -393.529
  N       62.110     -96.016    -394.069
  N       62.907     -98.983    -393.573
  C       63.704     -99.950    -393.147
  N       64.864     -99.452    -392.621
  O       66.282    -105.526    -394.366
  O       64.540    -103.970    -395.539
  H       65.258    -100.911    -389.478
  H       64.468    -103.136    -396.046
  H       66.072     -95.159    -392.326
  H       63.479    -101.012    -393.186
  H       66.294     -99.484    -391.130
  H       64.776    -101.996    -392.082
  H       66.574    -103.330    -391.212
  H       68.599    -101.553    -392.077
  H       68.175    -102.264    -394.388
  H       61.975     -95.022    -394.177
  H       61.415     -96.691    -394.357
  H       68.007    -103.663    -393.297
  P       67.433    -102.916    -388.773
  C       69.984    -103.238    -388.945
  O       68.898    -102.842    -388.119
  O       66.950    -104.292    -389.083
  O       66.521    -102.228    -387.644
  H       65.970    -102.914    -387.215
  H       70.900    -103.145    -388.399
  H       70.020    -102.612    -389.812
  H       69.850    -104.256    -389.246

 6  7  8  9  10  11  12  13  14  15  25  28  32  33  34  35 0
 6-311+G(2d,p)
 ****
 36  39  40 0
 6-311+G(2d,p)
 ****
 1  2  3  4  5  16  17  18  19  20  21  22  23  24 0
 3-21G
 ****
 26  27  29  30  31  37  38  41  42  43  44  45  46  47 0
 3-21G
 ****
 48 0
 3-21G
 ****


