%nproc=1
%NoSave
%Mem=1900MB
#P OB98/GEN NMR

erre ene a

0 1
  C     -276.527     129.645    -223.073
  O     -276.627     128.239    -222.992
  H     -277.526     130.064    -223.246
  H     -275.873     129.938    -223.902
  H     -276.135     130.053    -222.136
  P     -275.242     127.435    -222.843
  C     -274.288     125.686    -224.527
  O     -274.937     126.931    -224.338
  C     -273.751     125.592    -225.956
  O     -274.841     125.573    -226.908
  C     -272.872     126.769    -226.367
  O     -271.549     126.680    -225.865
  C     -272.907     126.617    -227.878
  O     -272.045     125.536    -228.279
  C     -274.394     126.255    -228.104
  N     -275.236     127.426    -228.378
  C     -275.450     127.763    -229.716
  O     -274.933     127.097    -230.618
  N     -276.215     128.871    -230.015
  C     -276.736     129.578    -229.056
  N     -277.467     130.664    -229.407
  C     -276.552     129.253    -227.627
  C     -275.810     128.185    -227.366
  O     -275.674     126.077    -222.105
  O     -274.136     128.173    -222.170
  H     -272.247     124.782    -227.688
  H     -274.910     125.452    -222.076
  H     -277.001     129.871    -226.858
  H     -275.621     127.880    -226.331
  H     -274.503     125.560    -228.947
  H     -272.569     127.513    -228.410
  H     -273.332     127.728    -226.102
  H     -273.217     124.634    -226.057
  H     -277.534     130.903    -230.388
  H     -275.014     124.885    -224.353
  H     -277.755     131.369    -228.739
  H     -273.461     125.577    -223.823
  P     -270.668     128.018    -225.849
  C     -268.572     128.661    -227.263
  O     -269.869     128.068    -227.242
  O     -269.504     127.674    -224.798
  O     -271.409     129.267    -225.476
  H     -269.294     128.454    -224.245
  H     -268.176     128.617    -228.256
  H     -267.926     128.129    -226.597
  H     -268.642     129.682    -226.952

 6  7  8  9  10  11  12  13  14  15  16  26  30  31  32  33  35 0
 6-311+G(2d,p)
 ****
 37  38 0
 6-311+G(2d,p)
 ****
 1  2  3  4  5  17  18  19  20  21  22  23  24  25 0
 3-21G
 ****
 27  28  29  34  36  39  40  41  42  43  44  45  46 0
 3-21G
 ****


