%nproc=1
%NoSave
%Mem=1900MB
#P OB98/GEN NMR

erre ene a

0 1
  C     -252.557      54.072    -285.682
  O     -252.185      54.116    -284.316
  P     -252.787      55.230    -283.328
  C     -250.973      56.841    -282.435
  O     -251.834      56.505    -283.515
  C     -249.791      55.877    -282.396
  O     -249.197      55.787    -283.705
  C     -248.666      56.296    -281.457
  O     -249.006      56.038    -280.104
  C     -247.508      55.473    -282.010
  O     -247.588      54.119    -281.541
  C     -247.786      55.516    -283.529
  N     -246.971      56.506    -284.225
  C     -245.587      56.310    -284.187
  O     -245.097      55.345    -283.603
  N     -244.778      57.201    -284.850
  C     -245.302      58.212    -285.473
  N     -244.459      59.021    -286.170
  C     -246.751      58.484    -285.492
  C     -247.517      57.598    -284.858
  O     -252.963      54.785    -281.914
  O     -254.140      55.701    -284.031
  H     -247.586      54.159    -280.564
  H     -254.927      55.161    -283.775
  H     -247.140      59.348    -286.014
  H     -248.593      57.717    -284.843
  H     -247.605      54.532    -283.974
  H     -246.523      55.866    -281.738
  H     -248.447      57.363    -281.575
  H     -250.168      54.882    -282.119
  H     -243.505      58.700    -286.277
  H     -251.537      56.756    -281.499
  H     -244.802      59.638    -286.898
  H     -250.636      57.875    -282.550
  P     -247.981      56.535    -278.974
  C     -246.664      54.634    -277.800
  O     -246.794      55.454    -278.951
  O     -248.782      56.283    -277.616
  O     -247.546      57.955    -279.120
  H     -249.160      57.120    -277.282
  H     -245.984      53.814    -278.036
  H     -247.632      54.219    -277.508
  H     -246.241      55.216    -276.978
  H     -252.049      53.263    -286.164
  H     -252.288      54.994    -286.155
  H     -253.614      53.926    -285.759

 3  4  5  6  7  8  9  10  11  12  13  23  27  28  29  30  32 0
 6-311+G(2d,p)
 ****
 34  35 0
 6-311+G(2d,p)
 ****
 1  2  14  15  16  17  18  19  20  21  22  24  25  26 0
 3-21G
 ****
 31  33  36  37  38  39  40  41  42  43  44  45  46 0
 3-21G
 ****


