%nproc=1
%NoSave
%Mem=1900MB
#P OB98/GEN NMR

erre ene a

0 1
  C      343.286    -365.085     154.161
  O      343.181    -363.817     154.794
  P      343.275    -363.759     156.390
  C      341.654    -364.200     158.371
  O      341.936    -364.407     156.994
  C      341.206    -365.502     159.038
  O      342.144    -366.567     158.713
  C      341.128    -365.416     160.567
  O      340.051    -366.243     161.034
  C      342.426    -366.055     161.024
  O      342.323    -366.546     162.357
  C      342.601    -367.135     159.957
  N      346.230    -369.944     162.081
  C      344.871    -369.939     162.322
  N      344.433    -370.731     163.323
  N      344.013    -369.230     161.635
  C      344.596    -368.479     160.667
  C      345.925    -368.412     160.323
  C      346.863    -369.193     161.094
  O      348.085    -369.219     160.956
  N      346.129    -367.566     159.259
  C      344.931    -367.086     158.989
  N      343.973    -367.586     159.834
  O      343.111    -362.195     156.698
  O      344.554    -364.280     156.956
  H      341.958    -365.819     162.900
  H      343.973    -361.812     156.943
  H      346.853    -370.498     162.645
  H      344.707    -366.370     158.210
  H      341.979    -368.014     160.167
  H      343.239    -365.319     160.990
  H      345.051    -371.250     163.937
  H      340.994    -364.399     160.959
  H      343.448    -370.718     163.554
  H      340.234    -365.793     158.617
  H      340.864    -363.457     158.467
  H      342.550    -363.811     158.868
  P      339.107    -365.598     162.163
  C      339.340    -365.249     164.737
  O      339.912    -365.744     163.543
  O      337.922    -366.667     162.303
  O      338.608    -364.228     161.840
  H      337.112    -366.229     162.637
  H      339.172    -366.085     165.420
  H      338.389    -364.739     164.561
  H      340.036    -364.547     165.199
  H      343.205    -364.962     153.101
  H      342.500    -365.723     154.507
  H      344.232    -365.525     154.398

 3  4  5  6  7  8  9  10  11  12  23  26  30  31 0
 6-311+G(2d,p)
 ****
 33  35  36  37  38 0
 6-311+G(2d,p)
 ****
 1  2  13  14  15  16  17  18  19  20  21  22  24  25 0
 3-21G
 ****
 27  28  29  32  34  39  40  41  42  43  44  45  46  47  48  49 0
 3-21G
 ****


