%nproc=1
%NoSave
%Mem=1900MB
#P OB98/GEN NMR

erre ene a

0 1
  C      -75.004    -212.142    -335.388
  O      -74.352    -210.966    -334.898
  P      -75.281    -209.819    -334.264
  C      -75.796    -210.845    -331.907
  O      -75.056    -209.911    -332.678
  C      -76.240    -210.205    -330.591
  O      -76.974    -211.154    -329.783
  C      -75.090    -209.728    -329.715
  O      -74.512    -208.536    -330.221
  C      -75.797    -209.581    -328.371
  O      -76.514    -208.338    -328.321
  C      -76.788    -210.760    -328.402
  N      -76.365    -211.885    -327.577
  C      -76.579    -211.753    -326.209
  O      -77.074    -210.746    -325.702
  N      -76.191    -212.812    -325.436
  C      -75.591    -213.953    -325.886
  O      -75.273    -214.874    -325.143
  C      -75.345    -214.017    -327.332
  C      -75.737    -212.998    -328.105
  O      -76.738    -210.439    -334.495
  O      -75.058    -208.479    -334.877
  H      -76.757    -211.409    -334.408
  H      -77.053    -208.363    -327.506
  H      -76.351    -212.741    -324.442
  H      -74.849    -214.898    -327.721
  H      -75.560    -213.026    -329.174
  H      -77.776    -210.435    -328.047
  H      -75.100    -209.592    -327.529
  H      -74.326    -210.513    -329.647
  H      -76.907    -209.367    -330.830
  H      -75.178    -211.723    -331.689
  H      -76.657    -211.183    -332.491
  P      -72.950    -208.594    -330.592
  C      -72.667    -209.556    -333.006
  O      -72.854    -208.428    -332.186
  O      -72.625    -210.142    -330.343
  O      -72.109    -207.648    -329.797
  H      -73.304    -210.732    -330.703
  H      -72.974    -209.305    -334.027
  H      -73.259    -210.408    -332.661
  H      -71.607    -209.827    -333.019
  H      -74.273    -212.818    -335.780
  H      -75.692    -211.872    -336.162
  H      -75.535    -212.615    -334.588

 3  4  5  6  7  8  9  10  11  12  13  24  28  29  30  31  32 0
 6-311+G(2d,p)
 ****
 33  34 0
 6-311+G(2d,p)
 ****
 1  2  14  15  16  17  18  19  20  21  22  23  25  26  27 0
 3-21G
 ****
 35  36  37  38  39  40  41  42  43  44  45 0
 3-21G
 ****


