%nproc=1
%NoSave
%Mem=1900MB
#P OB98/GEN NMR

erre ene a

0 1
  C      654.210    -567.195     855.687
  O      653.353    -567.301     854.549
  P      654.058    -567.470     853.115
  C      652.451    -566.057     851.597
  O      653.696    -566.151     852.286
  C      652.522    -564.964     850.537
  O      652.586    -563.654     851.169
  C      653.741    -565.041     849.642
  O      653.642    -566.086     848.694
  C      653.759    -563.628     849.050
  O      652.818    -563.545     847.961
  C      653.270    -562.772     850.245
  N      654.343    -562.052     850.899
  C      654.639    -560.794     850.372
  O      654.071    -560.321     849.395
  N      655.657    -560.108     850.984
  C      656.396    -560.554     852.051
  O      657.285    -559.891     852.571
  C      656.076    -561.908     852.538
  C      655.079    -562.586     851.953
  O      653.140    -568.623     852.451
  O      655.515    -567.816     853.222
  H      652.205    -568.543     852.710
  H      653.101    -564.195     847.295
  H      655.872    -559.194     850.630
  H      656.660    -562.301     853.340
  H      654.831    -563.590     852.290
  H      652.527    -562.052     849.895
  H      654.745    -563.345     848.649
  H      654.649    -565.177     850.262
  H      651.608    -565.010     849.919
  H      651.649    -565.819     852.305
  H      652.224    -567.033     851.143
  P      654.542    -567.390     848.944
  C      656.771    -566.836     847.686
  O      656.066    -566.912     848.913
  O      654.351    -568.177     847.556
  O      654.145    -568.168     850.166
  H      654.415    -567.596     846.786
  H      657.625    -566.189     847.809
  H      656.131    -566.455     846.870
  H      657.121    -567.833     847.408
  H      653.617    -567.088     856.571
  H      654.845    -566.341     855.577
  H      654.810    -568.077     855.765

 3  4  5  6  7  8  9  10  11  12  13  24  28  29  30  31  32 0
 6-311+G(2d,p)
 ****
 33  34 0
 6-311+G(2d,p)
 ****
 1  2  14  15  16  17  18  19  20  21  22  23  25  26  27 0
 3-21G
 ****
 35  36  37  38  39  40  41  42  43  44  45 0
 3-21G
 ****


