%nproc=1
%NoSave
%Mem=1900MB
#P OB98/GEN NMR

erre ene a

0 1
  C       68.663       3.693      39.447
  O       68.867       4.619      40.497
  P       70.336       4.718      41.130
  C       69.854       4.280      43.654
  O       70.360       3.777      42.426
  C       70.020       3.226      44.751
  O       69.043       2.175      44.589
  C       71.375       2.532      44.728
  O       72.381       3.340      45.317
  C       71.083       1.260      45.512
  O       71.163       1.496      46.926
  C       69.630       0.955      45.091
  N       69.544      -0.129      44.119
  C       69.592      -1.419      44.640
  O       69.723      -1.650      45.842
  N       69.525      -2.435      43.728
  C       69.473      -2.295      42.372
  O       69.472      -3.247      41.601
  C       69.455      -0.908      41.876
  C       69.497       0.094      42.758
  O       70.395       6.199      41.733
  O       71.445       4.468      40.164
  H       72.049       1.874      47.095
  H       71.296       6.563      41.632
  H       69.533      -3.376      44.086
  H       69.414      -0.759      40.806
  H       69.498       1.121      42.412
  H       69.035       0.676      45.970
  H       71.792       0.460      45.280
  H       71.642       2.265      43.698
  H       69.849       3.706      45.722
  H       68.796       4.527      43.536
  H       70.395       5.195      43.916
  P       73.903       2.870      45.113
  C       74.083       2.479      47.690
  O       74.230       1.956      46.388
  O       74.677       4.246      45.374
  O       74.150       2.257      43.776
  H       74.221       4.806      46.025
  H       73.236       3.167      47.751
  H       74.998       3.002      47.976
  H       73.916       1.651      48.384
  H       67.643       3.737      39.126
  H       68.886       2.706      39.794
  H       69.306       3.936      38.627

 3  4  5  6  7  8  9  10  11  12  13  23  28  29  30  31  32 0
 6-311+G(2d,p)
 ****
 33  34 0
 6-311+G(2d,p)
 ****
 1  2  14  15  16  17  18  19  20  21  22  24  25  26 0
 3-21G
 ****
 27  35  36  37  38  39  40  41  42  43  44  45 0
 3-21G
 ****


