%nproc=1
%NoSave
%Mem=1900MB
#P OB98/GEN NMR

erre ene a

0 1
  C       54.726    -165.095      24.264
  O       54.703    -165.560      22.915
  P       55.006    -164.519      21.733
  C       53.860    -162.355      20.930
  O       53.677    -163.660      21.468
  C       52.642    -161.928      20.106
  O       52.635    -162.549      18.806
  C       51.320    -162.315      20.747
  O       51.020    -161.474      21.846
  C       50.369    -162.200      19.561
  O       49.962    -160.837      19.360
  C       51.257    -162.667      18.385
  N       50.949    -164.017      17.934
  C       49.625    -164.244      17.538
  O       48.789    -163.345      17.620
  N       49.283    -165.493      17.075
  C       50.181    -166.429      17.022
  N       49.787    -167.643      16.551
  C       51.582    -166.232      17.439
  C       51.892    -165.017      17.888
  O       55.649    -165.093      20.514
  O       55.970    -163.449      22.444
  H       49.403    -160.838      18.557
  H       56.575    -163.073      21.773
  H       52.295    -167.043      17.371
  H       52.900    -164.787      18.220
  H       51.137    -161.992      17.528
  H       49.460    -162.789      19.712
  H       51.366    -163.362      21.081
  H       52.685    -160.838      19.971
  H       48.817    -167.756      16.280
  H       54.757    -162.341      20.302
  H       50.420    -168.419      16.424
  H       54.043    -161.655      21.755
  P       50.760    -162.170      23.268
  C       48.819    -163.460      24.403
  O       49.284    -162.791      23.246
  O       50.621    -160.917      24.260
  O       51.844    -163.098      23.720
  H       50.982    -161.150      25.135
  H       47.727    -163.535      24.343
  H       49.085    -162.918      25.314
  H       49.238    -164.468      24.439
  H       54.505    -165.907      24.925
  H       53.994    -164.325      24.388
  H       55.696    -164.705      24.490

 3  4  5  6  7  8  9  10  11  12  13  23  27  28  29  30  32 0
 6-311+G(2d,p)
 ****
 34  35 0
 6-311+G(2d,p)
 ****
 1  2  14  15  16  17  18  19  20  21  22  24  25  26 0
 3-21G
 ****
 31  33  36  37  38  39  40  41  42  43  44  45  46 0
 3-21G
 ****


