%nproc=1
%NoSave
%Mem=1900MB
#P OB98/GEN NMR

erre ene a

0 1
  C      264.792     322.405     796.368
  O      266.023     323.108     796.498
  P      266.186     324.524     795.751
  C      265.685     326.998     796.271
  O      265.826     325.682     796.805
  C      265.206     327.973     797.352
  O      263.933     327.566     797.906
  C      266.155     328.061     798.542
  O      267.305     328.811     798.205
  C      265.250     328.695     799.591
  O      265.186     330.119     799.425
  C      263.876     328.062     799.260
  N      263.490     327.021     800.201
  C      262.581     327.392     801.203
  O      262.183     328.553     801.275
  N      262.164     326.429     802.092
  C      262.616     325.217     802.005
  N      262.165     324.311     802.913
  C      263.587     324.787     800.972
  C      263.982     325.727     800.127
  O      265.522     324.632     794.423
  O      267.786     324.666     795.613
  H      266.102     330.446     799.464
  H      267.978     325.198     794.815
  H      263.932     323.757     800.934
  H      264.699     325.501     799.340
  H      263.092     328.832     799.285
  H      265.611     328.510     800.604
  H      266.442     327.056     798.862
  H      265.083     328.963     796.888
  H      261.509     324.638     803.612
  H      264.964     326.983     795.444
  H      262.414     323.339     802.893
  H      266.646     327.316     795.854
  P      268.690     328.404     798.916
  C      269.767     326.056     799.145
  O      269.166     327.015     798.276
  O      268.228     328.000     800.397
  O      269.724     329.490     798.946
  H      268.926     328.240     801.031
  H      269.736     325.082     798.639
  H      269.238     325.983     800.092
  H      270.810     326.324     799.306
  H      264.844     321.490     796.920
  H      264.612     322.190     795.336
  H      263.995     323.007     796.751

 3  4  5  6  7  8  9  10  11  12  13  23  27  28  29  30  32 0
 6-311+G(2d,p)
 ****
 34  35 0
 6-311+G(2d,p)
 ****
 1  2  14  15  16  17  18  19  20  21  22  24  25  26 0
 3-21G
 ****
 31  33  36  37  38  39  40  41  42  43  44  45  46 0
 3-21G
 ****


