%nproc=1
%NoSave
%Mem=1900MB
#P OB98/GEN NMR

erre ene a

0 1
  C      -32.267     -22.594     -16.604
  O      -32.664     -21.253     -16.772
  P      -31.649     -20.025     -16.801
  C      -29.791     -19.245     -18.467
  O      -30.514     -20.327     -17.893
  C      -28.340     -19.651     -18.767
  O      -27.624     -19.762     -17.510
  C      -28.267     -21.028     -19.446
  O      -27.321     -21.104     -20.504
  C      -28.078     -21.978     -18.271
  O      -27.541     -23.238     -18.639
  C      -27.223     -21.136     -17.328
  N      -25.351     -23.855     -13.466
  C      -24.789     -23.597     -14.701
  N      -23.677     -24.300     -15.005
  N      -25.296     -22.755     -15.563
  C      -26.470     -22.213     -15.165
  C      -27.121     -22.391     -13.967
  C      -26.533     -23.297     -13.010
  O      -27.056     -23.643     -11.950
  N      -28.323     -21.734     -13.938
  C      -28.418     -21.185     -15.131
  N      -27.332     -21.476     -15.924
  O      -31.225     -19.474     -15.479
  O      -32.531     -18.892     -17.541
  H      -26.704     -23.075     -19.112
  H      -32.276     -18.031     -17.154
  H      -24.955     -24.576     -12.875
  H      -29.257     -20.597     -15.484
  H      -26.163     -21.211     -17.576
  H      -29.067     -22.167     -17.838
  H      -23.349     -25.058     -14.423
  H      -29.217     -21.261     -19.941
  H      -23.394     -24.317     -15.981
  H      -27.861     -18.864     -19.357
  H      -29.811     -18.435     -17.729
  H      -30.287     -18.888     -19.372
  P      -27.408     -21.929     -21.868
  C      -29.088     -22.235     -23.780
  O      -28.895     -21.807     -22.445
  O      -27.321     -23.465     -21.431
  O      -26.333     -21.613     -22.857
  H      -26.776     -23.957     -22.074
  H      -30.049     -21.851     -24.135
  H      -29.106     -23.327     -23.818
  H      -28.292     -21.856     -24.429
  H      -33.130     -23.226     -16.620
  H      -31.763     -22.702     -15.666
  H      -31.606     -22.873     -17.398

 3  4  5  6  7  8  9  10  11  12  23  26  30  31 0
 6-311+G(2d,p)
 ****
 33  35  36  37  38 0
 6-311+G(2d,p)
 ****
 1  2  13  14  15  16  17  18  19  20  21  22  24  25 0
 3-21G
 ****
 27  28  29  32  34  39  40  41  42  43  44  45  46  47  48  49 0
 3-21G
 ****


