%nproc=1
%NoSave
%Mem=1900MB
#P OB98/GEN NMR

erre ene a

0 1
  C      771.577     -98.184     420.691
  O      770.809     -98.557     419.569
  P      769.244     -98.900     419.701
  C      768.343     -97.176     418.015
  O      768.624     -98.547     418.264
  C      768.714     -96.808     416.589
  O      770.148     -96.646     416.507
  C      768.373     -97.851     415.523
  O      767.020     -97.785     415.041
  C      769.320     -97.447     414.401
  O      768.784     -96.306     413.703
  C      770.575     -97.057     415.182
  N      773.950     -99.926     412.612
  C      773.168     -98.882     412.237
  N      772.291     -98.177     412.973
  C      772.259     -98.630     414.238
  C      773.019     -99.675     414.774
  C      773.874    -100.339     413.911
  N      774.690    -101.383     414.300
  N      772.707     -99.835     416.118
  C      771.822     -98.910     416.376
  N      771.526     -98.133     415.283
  O      768.574     -98.267     420.873
  O      769.196    -100.491     419.744
  H      767.928     -96.587     413.323
  H      768.327    -100.795     420.082
  H      773.264     -98.565     411.201
  H      771.355     -98.750     417.339
  H      771.090     -96.192     414.736
  H      769.463     -98.243     413.664
  H      768.614     -98.871     415.858
  H      768.245     -95.840     416.344
  H      768.940     -96.572     418.707
  H      775.383    -101.721     413.632
  H      774.762    -101.584     415.280
  H      767.287     -96.980     418.214
  P      766.487     -99.042     414.199
  C      764.884     -99.792     416.138
  O      765.031     -99.375     414.799
  O      767.419    -100.201     414.147
  O      766.159     -98.400     412.772
  H      765.421     -97.762     412.751
  H      763.825     -99.791     416.388
  H      765.392     -99.106     416.821
  H      765.280    -100.805     416.265
  H      772.586     -98.000     420.387
  H      771.560     -98.973     421.413
  H      771.168     -97.295     421.124

 3  4  5  6  7  8  9  10  11  12  22  25  29  30  31  32 0
 6-311+G(2d,p)
 ****
 33  36  37 0
 6-311+G(2d,p)
 ****
 1  2  13  14  15  16  17  18  19  20  21  23  24  26 0
 3-21G
 ****
 27  28  34  35  38  39  40  41  42  43  44  45  46  47  48 0
 3-21G
 ****


