%nproc=1
%NoSave
%Mem=1900MB
#P OB98/GEN NMR

erre ene a

0 1
  C     -221.674     -44.744     249.674
  O     -222.196     -45.083     248.379
  P     -223.320     -46.228     248.353
  C     -221.982     -48.424     248.715
  O     -222.831     -47.437     249.292
  C     -221.984     -49.726     249.512
  O     -223.291     -50.368     249.456
  C     -220.961     -50.755     249.028
  O     -220.489     -51.469     250.179
  C     -221.798     -51.696     248.184
  O     -221.159     -52.956     247.993
  C     -223.078     -51.739     249.028
  N     -227.399     -54.326     249.512
  C     -226.385     -54.079     250.435
  N     -226.586     -54.561     251.667
  N     -225.283     -53.428     250.155
  C     -225.246     -52.975     248.874
  C     -226.170     -53.131     247.878
  C     -227.375     -53.885     248.181
  O     -228.295     -54.126     247.407
  N     -225.781     -52.510     246.713
  C     -224.578     -52.021     246.997
  N     -224.233     -52.236     248.310
  O     -223.215     -46.818     246.866
  O     -224.701     -45.721     248.644
  H     -221.029     -53.365     248.873
  H     -223.918     -46.446     246.309
  H     -228.205     -54.842     249.781
  H     -223.945     -51.495     246.320
  H     -222.964     -52.368     249.928
  H     -221.995     -51.248     247.196
  H     -227.440     -55.021     251.969
  H     -220.111     -50.329     248.477
  H     -225.893     -54.355     252.388
  H     -221.791     -49.474     250.566
  H     -220.957     -48.034     248.655
  H     -222.296     -48.594     247.671
  P     -218.962     -51.233     250.642
  C     -217.926     -53.542     250.031
  O     -218.054     -52.161     249.707
  O     -218.905     -51.975     252.060
  O     -218.558     -49.803     250.753
  H     -218.351     -51.460     252.672
  H     -217.700     -54.082     249.107
  H     -218.856     -53.929     250.466
  H     -217.109     -53.666     250.731
  H     -220.937     -43.975     249.571
  H     -221.227     -45.610     250.116
  H     -222.469     -44.395     250.299

 3  4  5  6  7  8  9  10  11  12  23  26  30  31 0
 6-311+G(2d,p)
 ****
 33  35  36  37  38 0
 6-311+G(2d,p)
 ****
 1  2  13  14  15  16  17  18  19  20  21  22  24  25 0
 3-21G
 ****
 27  28  29  32  34  39  40  41  42  43  44  45  46  47  48  49 0
 3-21G
 ****


