%nproc=1
%NoSave
%Mem=1900MB
#P OB98/GEN NMR

erre ene a

0 1
  C      622.477     518.268    -941.888
  O      623.576     519.026    -941.407
  H      621.663     518.311    -941.157
  H      622.774     517.225    -942.021
  H      622.114     518.673    -942.838
  P      624.794     519.254    -942.424
  C      626.911     520.748    -942.263
  O      625.536     520.592    -941.943
  C      627.448     522.054    -941.691
  O      626.963     523.179    -942.457
  C      627.029     522.319    -940.235
  O      627.869     521.636    -939.316
  C      627.238     523.830    -940.163
  O      628.644     524.117    -940.029
  C      626.730     524.287    -941.536
  N      623.237     527.602    -939.952
  C      624.586     527.578    -939.714
  N      625.096     528.550    -938.944
  N      625.394     526.653    -940.182
  C      624.762     525.728    -940.945
  C      623.410     525.661    -941.251
  C      622.538     526.682    -940.723
  O      621.337     526.771    -940.931
  N      623.137     524.568    -942.051
  C      624.306     523.968    -942.202
  N      625.314     524.637    -941.560
  O      624.061     519.695    -943.786
  O      625.685     518.072    -942.641
  H      628.738     525.097    -940.028
  H      624.564     519.340    -944.546
  H      622.668     528.328    -939.546
  H      624.461     523.083    -942.795
  H      627.278     525.152    -941.920
  H      626.729     524.270    -939.304
  H      624.543     529.257    -938.489
  H      625.971     522.091    -940.074
  H      626.101     528.573    -938.771
  H      628.544     522.046    -941.769
  H      627.028     520.758    -943.360
  H      627.470     519.890    -941.854
  P      627.353     521.482    -937.805
  C      628.193     520.149    -935.731
  O      628.214     520.302    -937.151
  O      625.891     520.837    -937.980
  O      627.303     522.766    -937.029
  H      625.350     521.022    -937.201
  H      628.813     519.323    -935.452
  H      627.190     519.967    -935.407
  H      628.560     521.042    -935.271

 6  7  8  9  10  11  12  13  14  15  26  29  33  34 0
 6-311+G(2d,p)
 ****
 36  38  39  40  41 0
 6-311+G(2d,p)
 ****
 1  2  3  4  5  16  17  18  19  20  21  22  23  24  25 0
 3-21G
 ****
 27  28  30  31  32  35  37  42  43  44  45  46  47 0
 3-21G
 ****
 48  49 0
 3-21G
 ****


