%nproc=1
%NoSave
%Mem=1900MB
#P OB98/GEN NMR

erre ene a

0 1
  C      313.221     110.033     -76.178
  O      312.458     110.925     -75.363
  P      313.020     112.425     -75.251
  C      310.719     113.602     -75.039
  O      311.951     113.281     -74.408
  C      309.640     113.921     -74.001
  O      309.262     112.717     -73.264
  C      310.071     114.967     -72.958
  O      308.904     115.737     -72.640
  C      310.484     114.095     -71.787
  O      310.579     114.809     -70.560
  C      309.396     113.030     -71.859
  N      308.019     110.235     -67.816
  C      307.535     111.393     -68.321
  N      307.962     112.075     -69.405
  C      309.001     111.446     -69.984
  C      309.605     110.267     -69.582
  C      309.072     109.647     -68.435
  N      309.572     108.484     -67.897
  N      310.662     109.948     -70.423
  C      310.727     110.965     -71.267
  N      309.696     111.844     -71.094
  O      312.881     112.991     -76.740
  O      314.420     112.500     -74.738
  H      309.738     115.273     -70.383
  H      313.740     112.949     -77.204
  H      306.694     111.823     -67.785
  H      311.492     111.104     -72.016
  H      308.429     113.402     -71.509
  H      311.470     113.659     -71.985
  H      310.857     115.638     -73.311
  H      308.742     114.271     -74.529
  H      310.387     112.766     -75.659
  H      309.128     108.121     -67.070
  H      310.363     108.022     -68.326
  H      310.880     114.443     -75.722
  P      308.727     117.185     -73.308
  C      306.171     117.069     -73.079
  O      307.355     117.749     -72.694
  O      308.255     116.766     -74.786
  O      309.917     118.077     -73.273
  H      307.529     116.123     -74.756
  H      305.331     117.495     -72.527
  H      306.250     116.005     -72.838
  H      306.002     117.201     -74.154
  H      312.758     109.068     -76.181
  H      314.213     109.951     -75.785
  H      313.263     110.411     -77.178

 3  4  5  6  7  8  9  10  11  12  22  25  29  30  31  32 0
 6-311+G(2d,p)
 ****
 33  36  37 0
 6-311+G(2d,p)
 ****
 1  2  13  14  15  16  17  18  19  20  21  23  24  26 0
 3-21G
 ****
 27  28  34  35  38  39  40  41  42  43  44  45  46  47  48 0
 3-21G
 ****


