%nproc=1
%NoSave
%Mem=1900MB
#P OB98/GEN NMR

erre ene a

0 1
  C       71.828    -200.073      90.112
  O       72.792    -199.040      90.081
  H       71.491    -200.207      91.143
  H       72.255    -201.014      89.759
  H       70.966    -199.801      89.496
  P       73.567    -198.748      88.711
  C       73.112    -196.253      88.257
  O       74.029    -197.211      88.769
  C       72.059    -195.897      89.307
  O       72.705    -195.158      90.377
  C       70.913    -195.039      88.758
  O       69.700    -195.449      89.394
  C       71.302    -193.644      89.204
  O       70.177    -192.790      89.281
  C       72.006    -193.910      90.537
  N       72.911    -192.815      90.885
  C       72.442    -191.891      91.824
  O       71.325    -192.029      92.326
  N       73.213    -190.800      92.126
  C       74.334    -190.614      91.504
  N       75.032    -189.490      91.822
  C       74.857    -191.546      90.486
  C       74.104    -192.616      90.229
  O       72.859    -199.139      87.457
  O       74.945    -199.546      88.879
  H       69.672    -192.990      90.099
  H       74.853    -200.450      88.524
  H       75.794    -191.342      89.990
  H       74.403    -193.349      89.488
  H       71.276    -194.033      91.347
  H       72.006    -193.210      88.483
  H       70.808    -195.107      87.672
  H       71.678    -196.826      89.748
  H       74.622    -188.868      92.508
  H       72.623    -196.692      87.380
  H       75.894    -189.217      91.375
  H       73.651    -195.354      87.945
  P       68.654    -196.393      88.625
  C       67.322    -197.429      90.549
  O       67.299    -196.483      89.485
  O       69.204    -197.714      88.194
  O       68.220    -195.523      87.350
  H       67.997    -196.121      86.613
  H       66.381    -197.415      91.059
  H       68.103    -197.176      91.235
  H       67.498    -198.407      90.153

 6  7  8  9  10  11  12  13  14  15  16  26  30  31  32  33  35 0
 6-311+G(2d,p)
 ****
 37  38 0
 6-311+G(2d,p)
 ****
 1  2  3  4  5  17  18  19  20  21  22  23  24  25 0
 3-21G
 ****
 27  28  29  34  36  39  40  41  42  43  44  45  46 0
 3-21G
 ****


