%nproc=1
%NoSave
%Mem=1900MB
#P OB98/GEN NMR

erre ene a

0 1
  C      -87.973      13.902    -298.991
  O      -87.621      12.623    -299.526
  P      -88.150      11.327    -298.747
  C      -89.930      10.742    -300.557
  O      -89.662      11.046    -299.191
  C      -91.438      10.745    -300.811
  O      -92.001      12.052    -300.600
  C      -91.804      10.380    -302.240
  O      -91.716       8.982    -302.436
  C      -93.220      10.930    -302.354
  O      -94.203       9.954    -301.967
  C      -93.214      12.121    -301.370
  N      -93.341      13.406    -302.041
  C      -94.646      13.820    -302.321
  O      -95.605      13.102    -302.023
  N      -94.831      15.023    -302.954
  C      -93.803      15.733    -303.298
  N      -94.048      16.914    -303.928
  C      -92.408      15.318    -303.044
  C      -92.252      14.152    -302.419
  O      -88.296      11.838    -297.238
  O      -87.235      10.148    -298.842
  H      -94.104       9.853    -300.997
  H      -88.106      11.114    -296.615
  H      -91.584      15.939    -303.358
  H      -91.263      13.768    -302.193
  H      -94.043      12.031    -300.657
  H      -93.454      11.220    -303.384
  H      -91.144      10.907    -302.942
  H      -91.910      10.040    -300.111
  H      -95.015      17.166    -304.088
  H      -89.510       9.769    -300.814
  H      -93.322      17.540    -304.245
  H      -89.423      11.481    -301.188
  P      -90.526       8.431    -303.356
  C      -89.154       7.620    -301.343
  O      -89.215       8.515    -302.436
  O      -90.295       9.650    -304.370
  O      -90.756       7.144    -304.071
  H      -89.650       9.399    -305.054
  H      -88.141       7.633    -300.935
  H      -89.390       6.602    -301.665
  H      -89.852       7.938    -300.563
  H      -87.557      14.673    -299.606
  H      -87.587      13.991    -297.997
  H      -89.038      13.999    -298.970

 3  4  5  6  7  8  9  10  11  12  13  21  23  27  28  29  30  32 0
 6-311+G(2d,p)
 ****
 34  35 0
 6-311+G(2d,p)
 ****
 1  2  14  15  16  17  18  19  20  22  24  25  26 0
 3-21G
 ****
 31  33  36  37  38  39  40  41  42  43  44  45  46 0
 3-21G
 ****


