%nproc=1
%NoSave
%Mem=1900MB
#P OB98/GEN NMR

erre ene a

0 1
  C       31.295      -4.967     159.792
  O       31.028      -4.992     158.396
  P       31.383      -6.340     157.595
  C       32.827      -4.834     156.048
  O       32.751      -6.030     156.816
  C       34.184      -4.162     156.237
  O       34.355      -3.763     157.611
  C       35.378      -5.047     155.914
  O       35.654      -5.094     154.525
  C       36.487      -4.314     156.650
  O       36.920      -3.180     155.876
  C       35.771      -3.843     157.922
  N       38.717      -4.860     161.975
  C       38.825      -3.943     160.992
  N       38.005      -3.742     159.940
  C       37.005      -4.639     159.938
  C       36.789      -5.657     160.853
  C       37.694      -5.748     161.921
  N       37.567      -6.669     162.938
  N       35.662      -6.377     160.519
  C       35.200      -5.799     159.431
  N       35.971      -4.738     159.046
  O       30.289      -6.362     156.426
  O       31.358      -7.585     158.413
  H       37.240      -3.526     155.021
  H       30.161      -7.276     156.106
  H       39.678      -3.273     161.066
  H       34.311      -6.107     158.897
  H       36.091      -2.844     158.235
  H       37.368      -4.937     156.824
  H       35.256      -6.051     156.342
  H       34.199      -3.255     155.618
  H       32.040      -4.149     156.376
  H       38.143      -6.551     163.755
  H       36.699      -7.189     163.000
  H       32.664      -5.076     154.993
  P       35.289      -6.458     153.760
  C       37.719      -6.529     152.844
  O       36.689      -7.205     153.538
  O       34.880      -5.955     152.297
  O       34.208      -7.253     154.412
  H       34.276      -6.593     151.873
  H       38.669      -7.031     153.050
  H       37.799      -5.487     153.169
  H       37.528      -6.566     151.768
  H       31.012      -4.016     160.192
  H       32.340      -5.127     159.958
  H       30.734      -5.739     160.276

 3  4  5  6  7  8  9  10  11  12  22  25  29  30  31  32 0
 6-311+G(2d,p)
 ****
 33  36  37 0
 6-311+G(2d,p)
 ****
 1  2  13  14  15  16  17  18  19  20  21  23  24  26 0
 3-21G
 ****
 27  28  34  35  38  39  40  41  42  43  44  45  46  47  48 0
 3-21G
 ****


