%nproc=1
%NoSave
%Mem=1900MB
#P OB98/GEN NMR

erre ene a

0 1
  C       14.149    -135.214     -66.502
  O       15.396    -135.907     -66.412
  P       15.358    -137.476     -66.751
  C       17.788    -137.893     -67.547
  O       16.832    -138.068     -66.513
  C       18.426    -136.501     -67.491
  O       19.113    -136.292     -66.221
  C       19.454    -136.247     -68.600
  O       19.358    -134.860     -68.950
  C       20.775    -136.489     -67.895
  O       21.864    -135.902     -68.603
  C       20.461    -135.873     -66.533
  N       23.863    -134.201     -63.200
  C       23.182    -133.521     -64.191
  N       23.400    -132.192     -64.274
  N       22.354    -134.097     -65.025
  C       22.204    -135.426     -64.798
  C       22.812    -136.205     -63.842
  C       23.748    -135.562     -62.945
  O       24.375    -136.115     -62.049
  N       22.379    -137.509     -63.907
  C       21.563    -137.518     -64.949
  N       21.382    -136.273     -65.487
  O       15.187    -137.500     -68.343
  O       14.255    -138.212     -66.063
  H       22.692    -136.190     -68.162
  H       14.257    -137.673     -68.578
  H       24.502    -133.711     -62.595
  H       21.062    -138.390     -65.336
  H       20.483    -134.775     -66.558
  H       20.964    -137.565     -67.804
  H       23.985    -131.680     -63.632
  H       19.325    -136.871     -69.488
  H       22.881    -131.665     -64.965
  H       17.625    -135.755     -67.554
  H       17.312    -138.027     -68.522
  H       18.546    -138.680     -67.471
  P       18.654    -134.484     -70.338
  C       18.646    -131.898     -70.297
  O       19.241    -133.073     -70.808
  O       17.151    -134.137     -69.899
  O       18.671    -135.575     -71.360
  H       16.529    -134.476     -70.569
  H       19.385    -131.096     -70.306
  H       18.288    -132.035     -69.272
  H       17.806    -131.611     -70.935
  H       14.295    -134.183     -66.256
  H       13.450    -135.648     -65.818
  H       13.769    -135.292     -67.499

 3  4  5  6  7  8  9  10  11  12  23  26  30  31 0
 6-311+G(2d,p)
 ****
 33  35  36  37  38 0
 6-311+G(2d,p)
 ****
 1  2  13  14  15  16  17  18  19  20  21  22  24  25 0
 3-21G
 ****
 27  28  29  32  34  39  40  41  42  43  44  45  46  47  48  49 0
 3-21G
 ****


