%nproc=1
%NoSave
%Mem=1900MB
#P OB98/GEN NMR

erre ene a

0 1
  C     -267.686    -145.717     -34.956
  O     -268.812    -144.855     -35.166
  P     -270.095    -145.079     -34.228
  C     -269.351    -143.845     -32.039
  O     -270.123    -143.824     -33.230
  C     -269.230    -142.434     -31.468
  O     -268.318    -141.639     -32.263
  C     -270.536    -141.657     -31.449
  O     -271.399    -142.114     -30.418
  C     -270.024    -140.233     -31.275
  O     -269.713    -139.980     -29.896
  C     -268.726    -140.256     -32.113
  N     -268.869    -139.599     -33.405
  C     -268.773    -138.210     -33.392
  O     -268.605    -137.556     -32.361
  N     -268.899    -137.592     -34.608
  C     -269.134    -138.210     -35.799
  O     -269.228    -137.602     -36.858
  C     -269.276    -139.675     -35.741
  C     -269.138    -140.293     -34.568
  O     -269.602    -146.299     -33.318
  O     -271.346    -145.326     -34.999
  H     -268.651    -146.264     -33.116
  H     -270.562    -140.017     -29.411
  H     -268.820    -136.586     -34.621
  H     -269.487    -140.195     -36.668
  H     -269.241    -141.372     -34.505
  H     -267.917    -139.759     -31.566
  H     -270.756    -139.482     -31.591
  H     -271.041    -141.753     -32.420
  H     -268.822    -142.513     -30.450
  H     -268.350    -144.235     -32.249
  H     -269.826    -144.522     -31.322
  P     -272.965    -142.199     -30.765
  C     -273.156    -144.786     -31.082
  O     -273.454    -143.653     -30.302
  O     -272.924    -142.292     -32.363
  O     -273.759    -141.051     -30.237
  H     -272.245    -142.907     -32.690
  H     -273.250    -145.679     -30.459
  H     -272.138    -144.742     -31.481
  H     -273.867    -144.858     -31.910
  H     -266.907    -145.460     -35.643
  H     -267.981    -146.733     -35.114
  H     -267.330    -145.601     -33.954

 3  4  5  6  7  8  9  10  11  12  13  24  28  29  30  31  32 0
 6-311+G(2d,p)
 ****
 33  34 0
 6-311+G(2d,p)
 ****
 1  2  14  15  16  17  18  19  20  21  22  23  25  26  27 0
 3-21G
 ****
 35  36  37  38  39  40  41  42  43  44  45 0
 3-21G
 ****


