%nproc=1
%NoSave
%Mem=1900MB
#P OB98/GEN NMR

erre ene a

0 1
  C      -43.102     -58.523     362.251
  O      -41.732     -58.850     362.126
  H      -43.388     -57.886     361.409
  H      -43.263     -57.971     363.180
  H      -43.721     -59.424     362.238
  P      -41.183     -60.034     363.060
  C      -41.611     -61.846     361.254
  O      -41.903     -61.379     362.560
  C      -41.338     -63.348     361.276
  O      -40.210     -63.642     362.128
  C      -42.499     -64.189     361.797
  O      -43.455     -64.450     360.777
  C      -41.767     -65.459     362.199
  O      -41.463     -66.239     361.022
  C      -40.473     -64.901     362.807
  N      -38.787     -66.384     367.354
  C      -38.548     -66.918     366.103
  N      -37.755     -68.012     366.058
  N      -39.046     -66.435     364.996
  C      -39.840     -65.357     365.196
  C      -40.159     -64.739     366.382
  C      -39.588     -65.276     367.597
  O      -39.758     -64.830     368.729
  N      -40.996     -63.673     366.191
  C      -41.203     -63.658     364.889
  N      -40.529     -64.663     364.240
  O      -41.884     -59.725     364.469
  O      -39.700     -60.100     363.196
  H      -42.290     -66.672     360.746
  H      -41.230     -59.310     365.062
  H      -38.387     -66.803     368.175
  H      -41.825     -62.943     364.367
  H      -39.615     -65.556     362.626
  H      -42.362     -66.097     362.856
  H      -37.357     -68.449     366.875
  H      -42.964     -63.736     362.681
  H      -37.566     -68.417     365.152
  H      -41.065     -63.655     360.258
  H      -40.727     -61.321     360.873
  H      -42.463     -61.632     360.601
  P      -45.006     -64.218     361.112
  C      -45.038     -62.285     359.385
  O      -45.348     -62.702     360.707
  O      -45.019     -64.191     362.713
  O      -45.932     -65.253     360.577
  H      -45.480     -64.980     363.055
  H      -45.319     -61.260     359.259
  H      -45.575     -62.890     358.685
  H      -43.987     -62.390     359.215

 6  7  8  9  10  11  12  13  14  15  26  29  33  34 0
 6-311+G(2d,p)
 ****
 36  38  39  40  41 0
 6-311+G(2d,p)
 ****
 1  2  3  4  5  16  17  18  19  20  21  22  23  24  25 0
 3-21G
 ****
 27  28  30  31  32  35  37  42  43  44  45  46  47 0
 3-21G
 ****
 48  49 0
 3-21G
 ****


