%nproc=1
%NoSave
%Mem=1900MB
#P OB98/GEN NMR

erre ene a

0 1
  C     1092.878    -562.643    -899.320
  O     1093.174    -563.474    -898.220
  H     1093.808    -562.420    -899.860
  H     1092.445    -561.697    -898.970
  H     1092.185    -563.136    -900.000
  P     1091.930    -564.091    -897.420
  C     1091.046    -562.052    -896.080
  O     1091.804    -563.239    -896.060
  C     1091.162    -561.321    -894.750
  O     1090.588    -562.106    -893.670
  C     1092.597    -561.006    -894.330
  O     1093.074    -559.821    -894.940
  C     1092.410    -560.793    -892.830
  O     1091.830    -559.510    -892.580
  C     1091.393    -561.893    -892.480
  N     1094.510    -564.151    -889.170
  C     1094.134    -562.832    -889.280
  N     1094.688    -561.977    -888.380
  N     1093.312    -562.359    -890.180
  C     1092.856    -563.335    -891.000
  C     1093.150    -564.681    -891.010
  C     1094.060    -565.164    -890.000
  O     1094.406    -566.325    -889.850
  N     1092.470    -565.344    -892.010
  C     1091.821    -564.397    -892.630
  N     1092.007    -563.150    -892.080
  O     1092.463    -565.518    -896.920
  O     1090.666    -564.236    -898.200
  H     1091.515    -559.502    -891.640
  H     1091.745    -566.153    -896.930
  H     1095.168    -564.450    -888.450
  H     1091.158    -564.560    -893.480
  H     1090.713    -561.602    -891.680
  H     1093.353    -560.843    -892.260
  H     1095.366    -562.237    -887.700
  H     1093.268    -561.857    -894.490
  H     1094.403    -561.000    -888.410
  H     1090.563    -560.374    -894.820
  H     1089.989    -562.299    -896.270
  H     1091.396    -561.405    -896.910
  P     1094.493    -559.917    -895.700
  C     1095.575    -559.866    -893.320
  O     1095.587    -559.362    -894.650
  O     1094.411    -558.733    -896.780
  O     1094.794    -561.234    -896.330
  H     1095.041    -558.913    -897.520
  H     1096.356    -559.401    -892.755
  H     1095.730    -560.925    -893.338
  H     1094.630    -559.651    -892.866

 6  7  8  9  10  11  12  13  14  15  26  29  33  34 0
 6-311+G(2d,p)
 ****
 36  38  39  40  41 0
 6-311+G(2d,p)
 ****
 1  2  3  4  5  16  17  18  19  20  21  22  23  24  25 0
 3-21G
 ****
 27  28  30  31  32  35  37  42  43  44  45  46  47 0
 3-21G
 ****
 48  49 0
 3-21G
 ****


