%nproc=1
%NoSave
%Mem=1900MB
#P OB98/GEN NMR

erre ene a

0 1
  C     -316.636     137.708     397.771
  O     -317.046     136.673     396.899
  H     -317.008     138.659     397.384
  H     -315.546     137.753     397.818
  H     -317.045     137.555     398.775
  P     -316.761     135.152     397.317
  C     -314.323     134.786     396.553
  O     -315.197     135.043     397.648
  C     -313.330     133.690     396.930
  O     -312.532     134.105     398.062
  C     -313.988     132.380     397.348
  O     -314.463     131.665     396.225
  C     -312.846     131.712     398.094
  O     -311.929     131.088     397.179
  C     -312.188     132.912     398.805
  N     -312.587     133.034     400.206
  C     -312.395     131.911     401.005
  O     -311.950     130.847     400.578
  N     -312.770     132.040     402.317
  C     -313.403     133.119     402.867
  O     -313.796     133.150     404.029
  C     -313.600     134.266     401.975
  C     -313.188     134.175     400.702
  O     -317.283     134.116     396.378
  O     -317.440     135.025     398.764
  H     -312.473     130.558     396.566
  H     -318.276     134.527     398.687
  H     -312.651     131.231     402.907
  H     -314.084     135.146     402.375
  H     -313.331     135.007     400.029
  H     -311.095     132.827     398.767
  H     -313.195     130.934     398.774
  H     -314.801     132.579     398.055
  H     -312.654     133.530     396.078
  H     -313.778     135.705     396.317
  H     -314.919     134.492     395.683
  P     -315.927     131.020     396.251
  C     -315.380     128.668     397.137
  O     -315.960     129.935     397.432
  O     -316.438     130.535     394.935
  O     -316.852     132.195     396.822
  H     -317.530     132.423     396.156
  H     -315.460     128.031     397.993
  H     -314.349     128.798     396.884
  H     -315.896     128.223     396.312

 6  7  8  9  10  11  12  13  14  15  16  26  31  32  33  34  35 0
 6-311+G(2d,p)
 ****
 36  37 0
 6-311+G(2d,p)
 ****
 1  2  3  4  5  17  18  19  20  21  22  23  24  25 0
 3-21G
 ****
 27  28  29  30  38  39  40  41  42  43  44  45 0
 3-21G
 ****


