%nproc=1
%NoSave
%Mem=1900MB
#P OB98/GEN NMR

erre ene a

0 1
  C      431.383    -897.290    -417.502
  O      431.585    -897.220    -416.097
  P      430.653    -896.220    -415.243
  C      428.288    -897.290    -415.394
  O      429.173    -896.300    -415.875
  C      426.980    -896.640    -414.923
  O      427.302    -895.620    -413.955
  C      426.150    -895.990    -416.037
  O      424.766    -896.130    -415.668
  C      426.557    -894.530    -415.943
  O      425.595    -893.660    -416.521
  C      426.724    -894.380    -414.445
  N      427.839    -890.890    -410.948
  C      426.794    -891.810    -411.009
  N      425.985    -891.830    -409.944
  N      426.597    -892.630    -411.984
  C      427.502    -892.490    -412.990
  C      428.561    -891.620    -413.071
  C      428.795    -890.750    -411.954
  O      429.762    -889.990    -411.834
  N      429.204    -891.730    -414.270
  C      428.613    -892.740    -414.867
  N      427.606    -893.260    -414.109
  O      431.176    -894.780    -415.719
  O      430.690    -896.400    -413.750
  H      424.881    -893.520    -415.863
  H      431.844    -894.440    -415.091
  H      427.977    -890.300    -410.143
  H      428.863    -893.130    -415.843
  H      425.774    -894.210    -413.925
  H      427.516    -894.380    -416.463
  H      426.096    -891.240    -409.099
  H      426.326    -896.430    -417.027
  H      425.234    -892.500    -409.916
  H      426.393    -897.410    -414.405
  H      428.753    -897.800    -414.536
  H      428.103    -898.050    -416.177
  P      423.724    -896.530    -416.816
  C      423.950    -899.000    -416.087
  O      423.954    -898.070    -417.155
  O      424.306    -895.800    -418.119
  O      422.315    -896.100    -416.544
  H      423.577    -895.520    -418.698
  H      423.676    -900.000    -416.455
  H      423.226    -898.740    -415.310
  H      424.930    -899.020    -415.627
  H      432.071    -897.991    -417.927
  H      431.545    -896.325    -417.934
  H      430.381    -897.607    -417.703

 3  4  5  6  7  8  9  10  11  12  23  26  30  31 0
 6-311+G(2d,p)
 ****
 33  35  36  37  38 0
 6-311+G(2d,p)
 ****
 1  2  13  14  15  16  17  18  19  20  21  22  24  25 0
 3-21G
 ****
 27  28  29  32  34  39  40  41  42  43  44  45  46  47  48  49 0
 3-21G
 ****


