%nproc=1
%NoSave
%Mem=1900MB
#P OB98/GEN NMR

erre ene a

0 1
  C        0.652      14.935      71.447
  O        2.051      14.838      71.284
  H        0.223      15.375      70.543
  H        0.419      15.583      72.295
  H        0.204      13.949      71.600
  P        2.896      13.985      72.345
  C        2.927      15.475      74.449
  O        2.329      14.365      73.797
  C        3.188      15.160      75.924
  O        4.324      14.246      76.010
  C        3.532      16.397      76.780
  O        3.029      16.155      78.100
  C        5.047      16.355      76.756
  O        5.610      17.197      77.728
  C        5.271      14.850      76.914
  N        6.634      14.428      76.618
  C        7.488      14.222      77.695
  O        7.153      14.353      78.871
  N        8.771      13.864      77.377
  C        9.269      13.702      76.118
  O       10.422      13.358      75.891
  C        8.326      13.962      75.019
  C        7.071      14.307      75.314
  O        4.379      14.064      72.206
  O        2.365      12.489      72.135
  H        2.980      12.001      71.557
  H        6.585      17.095      77.748
  H        9.404      13.710      78.147
  H        8.696      13.864      74.008
  H        6.349      14.509      74.530
  H        5.005      14.522      77.924
  H        5.420      16.702      75.788
  H        3.099      17.320      76.386
  H        2.321      14.626      76.332
  H        2.246      16.328      74.368
  H        3.870      15.723      73.948
  P        1.849      17.016      78.765
  C        3.062      18.631      80.368
  O        2.395      18.483      79.122
  O        1.188      16.334      79.919
  O        0.795      17.276      77.588
  H       -0.108      17.261      77.957
  H        3.375      19.647      80.486
  H        3.918      17.989      80.393
  H        2.396      18.368      81.163

 6  7  8  9  10  11  12  13  14  15  16  27  31  32  33  34  35 0
 6-311+G(2d,p)
 ****
 36  37 0
 6-311+G(2d,p)
 ****
 1  2  3  4  5  17  18  19  20  21  22  23  24  25 0
 3-21G
 ****
 26  28  29  30  38  39  40  41  42  43  44  45 0
 3-21G
 ****


