%nproc=1
%NoSave
%Mem=1900MB
#P OB98/GEN NMR

erre ene a

0 1
  C      -89.478     -56.334      40.896
  O      -90.628     -57.179      40.857
  P      -91.634     -57.041      39.618
  C      -93.997     -57.605      40.490
  O      -92.837     -58.085      39.818
  C      -94.691     -58.745      41.254
  O      -95.078     -59.776      40.305
  C      -93.818     -59.448      42.298
  O      -93.803     -58.929      43.626
  C      -94.490     -60.817      42.375
  O      -95.623     -60.756      43.263
  C      -94.972     -61.065      40.949
  N      -94.014     -65.898      39.573
  C      -94.985     -65.351      40.336
  N      -95.169     -64.055      40.655
  C      -94.227     -63.286      40.086
  C      -93.178     -63.700      39.283
  C      -93.084     -65.079      39.030
  N      -92.089     -65.638      38.262
  N      -92.409     -62.625      38.891
  C      -92.975     -61.582      39.465
  N      -94.084     -61.927      40.187
  O      -91.007     -57.037      38.264
  O      -92.354     -55.637      39.914
  H      -95.275     -60.500      44.138
  H      -92.503     -55.175      39.066
  H      -95.710     -66.049      40.749
  H      -92.617     -60.565      39.386
  H      -95.965     -61.526      40.918
  H      -93.823     -61.588      42.773
  H      -92.790     -59.560      41.937
  H      -95.602     -58.359      41.725
  H      -94.689     -57.175      39.762
  H      -92.068     -66.639      38.166
  H      -91.354     -65.049      37.896
  H      -93.684     -56.792      41.146
  P      -92.887     -57.677      44.022
  C      -91.801     -58.485      46.260
  O      -92.787     -57.705      45.620
  O      -93.320     -56.371      43.451
  O      -91.431     -58.151      43.561
  H      -91.064     -58.883      44.084
  H      -91.760     -58.203      47.316
  H      -90.820     -58.315      45.811
  H      -92.064     -59.544      46.188
  H      -88.910     -56.545      41.778
  H      -89.788     -55.310      40.908
  H      -88.874     -56.514      40.031

 3  4  5  6  7  8  9  10  11  12  22  25  29  30  31  32 0
 6-311+G(2d,p)
 ****
 33  36  37 0
 6-311+G(2d,p)
 ****
 1  2  13  14  15  16  17  18  19  20  21  23  24  26 0
 3-21G
 ****
 27  28  34  35  38  39  40  41  42  43  44  45  46  47  48 0
 3-21G
 ****


