%nproc=1
%NoSave
%Mem=1900MB
#P OB98/GEN NMR

erre ene a

0 1
  C     -534.617    -898.720     970.258
  O     -533.407    -898.000     970.290
  P     -533.432    -896.400     970.062
  C     -533.067    -895.950     972.572
  O     -532.591    -895.720     971.241
  C     -531.902    -896.110     973.525
  O     -531.262    -897.410     973.362
  C     -530.779    -895.090     973.337
  O     -531.147    -893.810     973.805
  C     -529.633    -895.760     974.101
  O     -529.779    -895.520     975.521
  C     -529.898    -897.260     973.789
  N     -528.948    -897.760     972.797
  C     -527.801    -898.370     973.295
  O     -527.554    -898.390     974.513
  N     -526.925    -898.950     972.396
  C     -527.131    -898.830     971.128
  N     -526.262    -899.460     970.276
  C     -528.263    -898.060     970.563
  C     -529.137    -897.580     971.441
  O     -534.781    -895.810     969.827
  O     -532.481    -896.190     968.780
  H     -532.947    -895.620     968.139
  H     -529.182    -896.170     975.967
  H     -528.355    -897.940     969.483
  H     -530.008    -897.020     971.123
  H     -529.801    -897.840     974.712
  H     -528.663    -895.380     973.809
  H     -530.517    -895.040     972.279
  H     -532.305    -896.060     974.556
  H     -525.516    -900.000     970.710
  H     -533.677    -896.850     972.570
  H     -526.521    -899.690     969.329
  H     -533.698    -895.100     972.873
  P     -530.497    -892.550     973.038
  C     -532.697    -892.410     971.677
  O     -531.704    -891.700     972.410
  O     -529.787    -893.220     971.764
  O     -529.514    -891.780     973.852
  H     -528.951    -892.740     971.578
  H     -533.581    -891.760     971.617
  H     -532.969    -893.340     972.163
  H     -532.340    -892.590     970.664
  H     -534.419    -899.758     970.426
  H     -535.081    -898.596     969.302
  H     -535.270    -898.353     971.022

 3  4  5  6  7  8  9  10  11  12  13  24  27  28  29  30  32 0
 6-311+G(2d,p)
 ****
 34  35 0
 6-311+G(2d,p)
 ****
 1  2  14  15  16  17  18  19  20  21  22  23  25  26 0
 3-21G
 ****
 31  33  36  37  38  39  40  41  42  43  44  45  46 0
 3-21G
 ****


