%nproc=1
%NoSave
%Mem=1900MB
#P OB98/GEN NMR

erre ene a

0 1
  C     -264.837     426.264     852.432
  O     -264.504     426.018     851.086
  H     -264.232     425.617     853.071
  H     -265.892     426.033     852.606
  H     -264.637     427.309     852.696
  P     -265.163     426.975     849.972
  C     -262.933     427.075     848.639
  O     -264.320     426.759     848.622
  C     -262.294     426.799     847.278
  O     -261.922     425.399     847.214
  C     -263.231     427.085     846.102
  O     -262.455     427.655     845.025
  C     -263.727     425.712     845.679
  O     -264.133     425.661     844.313
  C     -262.521     424.832     846.033
  N     -262.924     423.438     846.236
  C     -263.305     422.720     845.094
  O     -263.305     423.268     843.985
  N     -263.735     421.423     845.244
  C     -263.855     420.915     846.434
  N     -264.309     419.633     846.513
  C     -263.521     421.663     847.667
  C     -263.052     422.896     847.495
  O     -264.735     428.442     850.444
  O     -266.639     426.831     849.804
  H     -265.027     426.053     844.243
  H     -265.417     429.099     850.205
  H     -263.655     421.204     848.639
  H     -262.798     423.526     848.340
  H     -261.774     424.868     845.226
  H     -264.596     425.437     846.301
  H     -264.050     427.770     846.354
  H     -261.369     427.385     847.201
  H     -264.540     419.160     845.640
  H     -262.437     426.449     849.401
  H     -264.483     419.156     847.387
  H     -262.801     428.128     848.922
  P     -263.276     428.242     843.776
  C     -262.139     430.580     843.596
  O     -262.328     429.293     843.013
  O     -264.388     429.171     844.471
  O     -263.896     427.193     842.911
  H     -265.264     428.758     844.392
  H     -261.488     431.160     842.976
  H     -261.703     430.471     844.567
  H     -263.084     431.075     843.683

 6  7  8  9  10  11  12  13  14  15  16  26  30  31  32  33  35 0
 6-311+G(2d,p)
 ****
 37  38 0
 6-311+G(2d,p)
 ****
 1  2  3  4  5  17  18  19  20  21  22  23  24  25 0
 3-21G
 ****
 27  28  29  34  36  39  40  41  42  43  44  45  46 0
 3-21G
 ****


