%nproc=1
%NoSave
%Mem=1900MB
#P OB98/GEN NMR

erre ene a

0 1
  C       79.335     380.327    -681.854
  O       80.176     381.384    -682.313
  P       81.089     381.316    -683.620
  C       83.300     382.343    -682.645
  O       82.187     382.469    -683.533
  C       84.639     382.768    -683.288
  O       84.918     381.906    -684.416
  C       84.541     384.190    -683.826
  O       84.749     385.302    -682.971
  C       85.450     384.196    -685.060
  O       86.776     384.648    -684.773
  C       85.463     382.719    -685.487
  N       85.357     383.170    -690.580
  C       86.301     383.649    -689.689
  N       87.307     384.378    -690.190
  N       86.234     383.443    -688.397
  C       85.120     382.767    -688.004
  C       84.113     382.266    -688.806
  C       84.214     382.454    -690.234
  O       83.428     382.046    -691.082
  N       83.124     381.662    -688.053
  C       83.525     381.815    -686.809
  N       84.746     382.480    -686.727
  O       80.351     381.176    -684.911
  O       81.947     379.958    -683.405
  H       87.337     384.432    -685.540
  H       82.105     379.578    -684.297
  H       85.470     383.344    -691.571
  H       82.992     381.473    -685.938
  H       86.488     382.362    -685.653
  H       85.057     384.866    -685.832
  H       87.354     384.680    -691.155
  H       83.528     384.323    -684.223
  H       87.878     384.908    -689.513
  H       85.461     382.626    -682.587
  H       83.333     381.292    -682.333
  H       83.121     382.937    -681.735
  P       83.649     385.960    -682.002
  C       83.250     387.861    -683.676
  O       83.569     387.524    -682.340
  O       84.349     385.945    -680.561
  O       82.333     385.251    -681.968
  H       83.683     386.079    -679.866
  H       83.526     388.910    -683.855
  H       82.172     387.738    -683.839
  H       83.799     387.229    -684.382
  H       78.834     380.633    -680.959
  H       79.929     379.460    -681.652
  H       78.610     380.095    -682.607

 3  4  5  6  7  8  9  10  11  12  23  26  30  31 0
 6-311+G(2d,p)
 ****
 33  35  36  37  38 0
 6-311+G(2d,p)
 ****
 1  2  13  14  15  16  17  18  19  20  21  22  24  25 0
 3-21G
 ****
 27  28  29  32  34  39  40  41  42  43  44  45  46  47  48  49 0
 3-21G
 ****


