%nproc=1
%NoSave
%Mem=1900MB
#P OB98/GEN NMR

erre ene a

0 1
  C      269.137      -6.742    -130.860
  O      269.710      -7.498    -129.799
  H      269.932      -6.241    -131.401
  H      268.445      -5.997    -130.463
  H      268.604      -7.408    -131.553
  P      268.732      -8.339    -128.849
  C      269.324      -7.056    -126.677
  O      268.330      -7.357    -127.652
  C      268.754      -6.184    -125.577
  O      268.425      -4.878    -126.105
  C      267.474      -6.733    -124.943
  O      267.792      -7.721    -123.981
  C      266.898      -5.467    -124.336
  O      267.608      -5.135    -123.127
  C      267.202      -4.433    -125.443
  N      264.082      -1.175    -127.761
  C      264.983      -0.967    -126.732
  N      265.017       0.295    -126.208
  N      265.753      -1.895    -126.233
  C      265.554      -3.101    -126.802
  C      264.686      -3.442    -127.823
  C      263.882      -2.389    -128.386
  O      263.081      -2.530    -129.327
  N      264.707      -4.795    -128.078
  C      265.628      -5.264    -127.252
  N      266.158      -4.273    -126.451
  O      269.239      -9.672    -128.383
  O      267.378      -8.465    -129.701
  H      267.419      -4.197    -122.946
  H      267.365      -9.291    -130.215
  H      263.502      -0.412    -128.082
  H      265.940      -6.297    -127.197
  H      267.402      -3.433    -125.027
  H      265.839      -5.557    -124.081
  H      264.267       0.947    -126.354
  H      266.771      -7.110    -125.706
  H      265.637       0.448    -125.427
  H      269.534      -6.039    -124.816
  H      270.147      -6.548    -127.188
  H      269.712      -7.995    -126.244
  P      266.646      -8.689    -123.371
  C      266.667      -7.774    -120.937
  O      265.975      -7.826    -122.188
  O      267.123     -10.031    -122.970
  O      265.504      -8.693    -124.486
  H      265.618      -9.400    -125.175
  H      266.113      -7.171    -120.248
  H      267.637      -7.348    -121.084
  H      266.768      -8.764    -120.544

 6  7  8  9  10  11  12  13  14  15  26  29  33  34 0
 6-311+G(2d,p)
 ****
 36  38  39  40  41 0
 6-311+G(2d,p)
 ****
 1  2  3  4  5  16  17  18  19  20  21  22  23  24  25 0
 3-21G
 ****
 27  28  30  31  32  35  37  42  43  44  45  46  47 0
 3-21G
 ****
 48  49 0
 3-21G
 ****


