%nproc=1
%NoSave
%Mem=1900MB
#P OB98/GEN NMR

erre ene a

0 1
  C      119.398     -96.321    -301.649
  O      120.071     -96.407    -302.887
  P      120.000     -97.729    -303.789
  C      122.523     -98.220    -303.575
  O      121.204     -98.681    -303.301
  C      123.428     -99.399    -303.960
  O      123.603    -100.254    -302.791
  C      122.840    -100.265    -305.093
  O      123.719    -100.478    -306.199
  C      122.393    -101.519    -304.359
  O      122.247    -102.653    -305.195
  C      123.441    -101.612    -303.243
  N      123.031    -102.513    -302.169
  C      123.967    -103.452    -301.733
  O      125.104    -103.559    -302.182
  N      123.536    -104.330    -300.780
  C      122.258    -104.442    -300.310
  O      121.918    -105.315    -299.531
  C      121.302    -103.453    -300.833
  C      121.731    -102.536    -301.707
  O      119.957     -97.499    -305.256
  O      118.719     -98.495    -303.205
  H      121.513    -102.475    -305.813
  H      118.772     -98.728    -302.262
  H      124.203    -105.014    -300.453
  H      120.281    -103.524    -300.490
  H      121.046    -101.793    -302.112
  H      124.403    -101.948    -303.626
  H      121.405    -101.320    -303.918
  H      121.962     -99.778    -305.548
  H      124.405     -98.989    -304.244
  H      122.923     -97.738    -302.677
  H      122.497     -97.467    -304.371
  P      123.410    -100.083    -307.714
  C      122.648    -102.513    -308.262
  O      122.343    -101.132    -308.293
  O      124.598     -99.861    -308.576
  O      122.548     -98.737    -307.586
  H      122.686     -98.181    -308.370
  H      122.126    -103.006    -309.091
  H      122.295    -102.940    -307.319
  H      123.721    -102.690    -308.367
  H      119.575     -95.360    -301.213
  H      119.761     -97.084    -300.992
  H      118.348     -96.454    -301.804

 3  4  5  6  7  8  9  10  11  12  13  23  28  29  30  31  32 0
 6-311+G(2d,p)
 ****
 33  34 0
 6-311+G(2d,p)
 ****
 1  2  14  15  16  17  18  19  20  21  22  24  25  26  27 0
 3-21G
 ****
 35  36  37  38  39  40  41  42  43  44  45 0
 3-21G
 ****


