%nproc=1
%NoSave
%Mem=1900MB
#P OB98/GEN NMR

erre ene a

0 1
  C      348.982     542.911     139.594
  O      349.426     543.073     138.243
  P      349.374     544.490     137.490
  C      351.924     544.781     137.710
  O      350.639     545.363     137.936
  C      352.885     545.771     137.043
  O      352.413     546.131     135.727
  C      353.068     547.085     137.797
  O      353.952     546.911     138.888
  C      353.580     547.995     136.686
  O      354.986     547.794     136.480
  C      352.788     547.503     135.474
  N      350.965     551.527     132.897
  C      352.191     550.954     132.935
  N      352.598     549.886     133.650
  C      351.582     549.384     134.367
  C      350.280     549.866     134.438
  C      349.983     550.995     133.659
  N      348.743     551.583     133.637
  N      349.527     549.105     135.308
  C      350.351     548.169     135.741
  N      351.602     548.299     135.203
  O      348.065     545.200     137.611
  O      349.686     544.143     135.953
  H      355.326     548.574     136.003
  H      349.256     544.803     135.377
  H      352.942     551.418     132.298
  H      350.085     547.384     136.438
  H      353.394     547.497     134.568
  H      353.432     549.057     136.912
  H      352.098     547.450     138.151
  H      353.849     545.263     136.914
  H      351.798     543.905     137.062
  H      348.620     552.413     133.075
  H      348.018     551.226     134.235
  H      352.332     544.456     138.670
  P      353.772     547.790     140.217
  C      354.658     545.882     141.693
  O      353.577     546.761     141.438
  O      352.762     548.882     140.137
  O      355.243     548.373     140.484
  H      355.166     549.234     140.941
  H      354.619     545.046     140.983
  H      354.550     545.491     142.710
  H      355.616     546.397     141.603
  H      349.107     541.891     139.891
  H      347.948     543.179     139.664
  H      349.559     543.542     140.237

 3  4  5  6  7  8  9  10  11  12  22  25  29  30  31  32 0
 6-311+G(2d,p)
 ****
 33  36  37 0
 6-311+G(2d,p)
 ****
 1  2  13  14  15  16  17  18  19  20  21  23  24  26 0
 3-21G
 ****
 27  28  34  35  38  39  40  41  42  43  44  45  46  47  48 0
 3-21G
 ****


