%nproc=1
%NoSave
%Mem=1900MB
#P OB98/GEN NMR

erre ene a

0 1
  C     -444.803       3.479     -10.593
  O     -446.117       3.904     -10.266
  P     -446.661       5.257     -10.959
  C     -446.015       7.764     -10.788
  O     -445.724       6.433     -10.381
  C     -446.055       8.691      -9.574
  O     -445.144       8.196      -8.560
  C     -445.610      10.120      -9.855
  O     -446.649      10.892     -10.429
  C     -445.277      10.614      -8.445
  O     -446.486      11.012      -7.769
  C     -444.688       9.336      -7.797
  N     -440.582      10.299      -4.996
  C     -441.924      10.430      -4.670
  N     -442.200      10.848      -3.427
  N     -442.900      10.163      -5.511
  C     -442.465       9.719      -6.712
  C     -441.164       9.546      -7.147
  C     -440.095       9.883      -6.243
  O     -438.888       9.864      -6.472
  N     -441.124       9.073      -8.438
  C     -442.391       8.903      -8.763
  N     -443.243       9.327      -7.751
  O     -448.058       5.501     -10.230
  O     -446.802       5.194     -12.455
  H     -446.822      11.791      -8.262
  H     -448.645       6.030     -10.806
  H     -439.862      10.489      -4.312
  H     -442.731       8.481      -9.703
  H     -445.078       9.206      -6.768
  H     -444.604      11.461      -8.446
  H     -441.503      10.929      -2.692
  H     -444.707      10.143     -10.474
  H     -443.175      10.915      -3.155
  H     -447.076       8.676      -9.164
  H     -447.007       7.787     -11.279
  H     -445.260       8.096     -11.515
  P     -446.256      12.369     -10.929
  C     -445.483      14.544      -9.708
  O     -445.988      13.224      -9.588
  O     -447.629      12.944     -11.492
  O     -445.166      12.398     -11.953
  H     -447.456      13.639     -12.167
  H     -445.886      15.046     -10.590
  H     -444.391      14.494      -9.775
  H     -445.769      15.099      -8.809
  H     -444.578       2.576     -10.065
  H     -444.103       4.239     -10.315
  H     -444.737       3.302     -11.646

 3  4  5  6  7  8  9  10  11  12  23  26  30  31  33  0
 6-311+G(2d,p)
 ****
 35  36  37  38 0
 6-311+G(2d,p)
 ****
 1  2  13  14  15  16  17  18  19  20  21  22  24  25  27  28  29 0
 3-21G
 ****
 32  34  39  40  41  42  43  44  45  46  47  48  49 0
 3-21G
 ****


