%nproc=1
%NoSave
%Mem=1900MB
#P OB98/GEN NMR

erre ene a

0 1
  C     -393.007    -579.737     415.645
  O     -393.764    -578.543     415.673
  P     -393.021    -577.142     415.908
  C     -394.641    -576.460     417.834
  O     -394.106    -576.147     416.568
  C     -396.028    -575.817     418.031
  O     -395.828    -574.395     418.238
  C     -396.958    -575.935     416.826
  O     -398.300    -575.694     417.262
  C     -396.493    -574.791     415.949
  O     -397.472    -574.402     415.000
  C     -396.113    -573.705     416.997
  N     -394.947    -572.925     416.568
  C     -395.195    -571.661     416.024
  O     -396.321    -571.168     415.968
  N     -394.110    -571.029     415.477
  C     -392.854    -571.544     415.370
  O     -391.992    -571.107     414.616
  C     -392.599    -572.761     416.170
  C     -393.643    -573.403     416.697
  O     -392.857    -576.581     414.418
  O     -391.726    -577.220     416.623
  H     -398.338    -574.356     415.488
  H     -391.967    -576.782     414.080
  H     -394.323    -570.172     414.958
  H     -391.582    -573.123     416.233
  H     -393.492    -574.328     417.246
  H     -396.940    -573.007     417.170
  H     -395.601    -575.096     415.398
  H     -396.900    -576.897     416.307
  H     -396.495    -576.231     418.927
  H     -393.944    -576.130     418.616
  H     -394.732    -577.550     417.951
  P     -399.405    -576.830     417.015
  C     -400.186    -575.949     414.741
  O     -400.531    -576.172     416.090
  O     -399.888    -577.543     418.232
  O     -398.652    -577.827     416.007
  H     -399.095    -578.697     416.007
  H     -401.093    -576.010     414.127
  H     -399.464    -576.693     414.372
  H     -399.757    -574.944     414.628
  H     -393.659    -580.569     415.479
  H     -392.501    -579.861     416.580
  H     -392.288    -579.685     414.855

 3  4  5  6  7  8  9  10  11  12  13  23  28  29  30  31  32 0
 6-311+G(2d,p)
 ****
 33  34 0
 6-311+G(2d,p)
 ****
 1  2  14  15  16  17  18  19  20  21  22  24  25  26  27 0
 3-21G
 ****
 35  36  37  38  39  40  41  42  43  44  45 0
 3-21G
 ****


