%nproc=1
%NoSave
%Mem=1900MB
#P OB98/GEN NMR

erre ene a

0 1
  C      -98.260    -801.503    1132.652
  O      -99.287    -802.195    1131.972
  H      -98.325    -800.441    1132.398
  H      -97.286    -801.886    1132.329
  H      -98.359    -801.618    1133.738
  P      -99.645    -803.672    1132.484
  C     -101.632    -802.979    1134.007
  O     -100.315    -803.503    1133.935
  C     -102.648    -804.096    1134.273
  O     -102.402    -804.616    1135.616
  C     -104.114    -803.638    1134.223
  O     -104.904    -804.694    1133.649
  C     -104.490    -803.500    1135.677
  O     -105.889    -803.602    1135.896
  C     -103.679    -804.636    1136.300
  N     -105.908    -805.696    1140.660
  C     -106.183    -806.158    1139.385
  N     -107.244    -806.957    1139.229
  N     -105.464    -805.822    1138.338
  C     -104.415    -805.021    1138.631
  C     -104.037    -804.508    1139.852
  C     -104.847    -804.854    1141.001
  O     -104.672    -804.483    1142.153
  N     -102.947    -803.683    1139.722
  C     -102.674    -803.680    1138.427
  N     -103.536    -804.489    1137.727
  O      -98.196    -804.283    1132.809
  O     -100.409    -804.516    1131.526
  H     -106.062    -803.505    1136.855
  H      -97.880    -804.797    1132.030
  H     -106.495    -805.969    1141.433
  H     -101.889    -803.114    1137.962
  H     -104.135    -805.622    1136.120
  H     -104.148    -802.530    1136.061
  H     -107.832    -807.281    1139.988
  H     -104.276    -802.712    1133.637
  H     -107.433    -807.331    1138.307
  H     -102.460    -804.920    1133.579
  H     -101.882    -802.508    1133.042
  H     -101.674    -802.217    1134.790
  P     -106.192    -804.299    1132.764
  C     -105.237    -804.459    1130.334
  O     -105.679    -803.616    1131.395
  O     -106.818    -803.083    1133.575
  O     -107.161    -805.423    1132.596
  H     -107.787    -803.095    1133.496
  H     -104.932    -803.857    1129.504
  H     -106.037    -805.103    1130.033
  H     -104.410    -805.050    1130.669

 6  7  8  9  10  11  12  13  14  15  26  29  33  34 0
 6-311+G(2d,p)
 ****
 36  38  39  40  41 0
 6-311+G(2d,p)
 ****
 1  2  3  4  5  16  17  18  19  20  21  22  23  24  25 0
 3-21G
 ****
 27  28  30  31  32  35  37  42  43  44  45  46  47 0
 3-21G
 ****
 48  49 0
 3-21G
 ****


