%nproc=1
%NoSave
%Mem=1900MB
#P OB98/GEN NMR

erre ene a

0 1
  C        3.107      30.785      -9.495
  O        2.455      31.929     -10.005
  H        3.409      30.988      -8.463
  H        4.002      30.566     -10.082
  H        2.438      29.921      -9.500
  P        1.790      31.855     -11.461
  C        3.732      33.205     -12.481
  O        2.982      31.998     -12.523
  C        4.683      33.268     -13.673
  O        5.561      32.121     -13.675
  C        3.978      33.254     -15.025
  O        3.400      34.513     -15.304
  C        5.129      32.853     -15.934
  O        5.978      33.975     -16.218
  C        5.873      31.820     -15.055
  N        5.524      30.437     -15.385
  C        6.533      29.671     -15.958
  O        7.660      30.102     -16.189
  N        6.186      28.391     -16.302
  C        4.935      27.853     -16.214
  O        4.620      26.787     -16.733
  C        3.930      28.683     -15.533
  C        4.261      29.923     -15.169
  O        0.627      32.761     -11.690
  O        1.370      30.315     -11.604
  H        0.412      30.226     -11.435
  H        6.680      33.647     -16.813
  H        6.897      27.841     -16.762
  H        2.941      28.267     -15.385
  H        3.527      30.564     -14.693
  H        6.959      31.933     -15.166
  H        4.785      32.461     -16.893
  H        3.219      32.464     -15.045
  H        5.304      34.167     -13.568
  H        4.313      33.222     -11.552
  H        3.044      34.056     -12.486
  P        2.070      34.636     -16.184
  C        3.428      35.640     -18.111
  O        2.494      34.640     -17.729
  O        1.152      35.746     -15.791
  O        1.351      33.214     -16.012
  H        0.430      33.356     -15.719
  H        3.639      35.551     -19.156
  H        4.332      35.515     -17.553
  H        3.016      36.607     -17.911

 6  7  8  9  10  11  12  13  14  15  16  27  31  32  33  34  35 0
 6-311+G(2d,p)
 ****
 36  37 0
 6-311+G(2d,p)
 ****
 1  2  3  4  5  17  18  19  20  21  22  23  24  25 0
 3-21G
 ****
 26  28  29  30  38  39  40  41  42  43  44  45 0
 3-21G
 ****


