%nproc=1
%NoSave
%Mem=1900MB
#P OB98/GEN NMR

erre ene a

0 1
  C     -109.252      48.633    -233.676
  O     -108.646      48.298    -234.909
  H     -108.910      47.926    -232.914
  H     -110.341      48.571    -233.745
  H     -108.955      49.642    -233.372
  P     -109.183      49.026    -236.237
  C     -108.192      49.528    -238.572
  O     -107.936      49.044    -237.252
  C     -106.924      49.475    -239.430
  O     -105.944      50.407    -238.927
  C     -106.231      48.122    -239.414
  O     -106.943      47.099    -240.081
  C     -104.821      48.473    -239.868
  O     -104.671      48.503    -241.285
  C     -104.644      49.901    -239.292
  N     -103.715      49.927    -238.169
  C     -102.444      49.419    -238.424
  O     -102.103      48.949    -239.511
  N     -101.576      49.427    -237.367
  C     -101.865      49.836    -236.097
  O     -101.054      49.780    -235.179
  C     -103.235      50.338    -235.880
  C     -104.083      50.361    -236.912
  O     -109.815      50.371    -236.032
  O     -110.165      47.947    -236.891
  H     -105.024      47.660    -241.628
  H     -110.759      48.364    -237.561
  H     -100.647      49.073    -237.534
  H     -103.500      50.671    -234.887
  H     -105.099      50.726    -236.778
  H     -104.255      50.575    -240.067
  H     -104.087      47.758    -239.485
  H     -106.144      47.796    -238.369
  H     -107.187      49.774    -240.451
  H     -108.524      50.568    -238.484
  H     -108.990      48.938    -239.032
  P     -106.379      45.615    -240.271
  C     -107.361      43.238    -240.654
  O     -107.628      44.629    -240.509
  O     -105.294      45.184    -239.335
  O     -105.734      45.710    -241.748
  H     -104.948      45.132    -241.759
  H     -108.281      42.712    -240.805
  H     -106.882      42.873    -239.770
  H     -106.720      43.084    -241.497

 6  7  8  9  10  11  12  13  14  15  16  26  31  32  33  34  35 0
 6-311+G(2d,p)
 ****
 36  37 0
 6-311+G(2d,p)
 ****
 1  2  3  4  5  17  18  19  20  21  22  23  24  25 0
 3-21G
 ****
 27  28  29  30  38  39  40  41  42  43  44  45 0
 3-21G
 ****


