%nproc=1
%NoSave
%Mem=1900MB
#P OB98/GEN NMR

erre ene a

0 1
  C      -79.568     155.257      72.832
  O      -78.575     154.250      72.781
  H      -80.317     154.975      73.579
  H      -80.068     155.362      71.865
  H      -79.124     156.212      73.123
  P      -77.445     154.357      71.648
  C      -77.317     153.739      69.138
  O      -78.092     153.712      70.332
  C      -77.983     152.887      68.062
  O      -78.004     151.502      68.465
  C      -79.435     153.267      67.808
  O      -79.519     154.455      67.045
  C      -79.944     152.013      67.126
  O      -79.572     151.983      65.742
  C      -79.206     150.908      67.919
  N      -80.029     150.326      68.974
  C      -80.553     149.055      68.713
  O      -80.309     148.487      67.650
  N      -81.358     148.474      69.661
  C      -81.604     149.093      70.773
  N      -82.410     148.461      71.669
  C      -81.061     150.426      71.093
  C      -80.292     150.981      70.157
  O      -76.088     153.823      71.994
  O      -77.405     155.920      71.304
  H      -80.011     151.194      65.366
  H      -76.765     156.380      71.878
  H      -81.289     150.902      72.035
  H      -79.851     151.960      70.312
  H      -78.884     150.102      67.249
  H      -81.029     151.941      67.179
  H      -79.968     153.377      68.758
  H      -77.387     152.961      67.143
  H      -82.770     147.550      71.403
  H      -76.330     153.335      69.384
  H      -82.598     148.805      72.598
  H      -77.192     154.767      68.781
  P      -80.610     155.575      67.400
  C      -83.173     155.469      67.677
  O      -82.030     154.926      67.020
  O      -80.346     156.926      66.822
  O      -80.632     155.565      69.003
  H      -79.827     155.999      69.378
  H      -84.052     154.958      67.343
  H      -83.256     156.510      67.446
  H      -83.069     155.346      68.735

 6  7  8  9  10  11  12  13  14  15  16  26  30  31  32  33  35 0
 6-311+G(2d,p)
 ****
 37  38 0
 6-311+G(2d,p)
 ****
 1  2  3  4  5  17  18  19  20  21  22  23  24  25 0
 3-21G
 ****
 27  28  29  34  36  39  40  41  42  43  44  45  46 0
 3-21G
 ****


