%nproc=1
%NoSave
%Mem=1900MB
#P OB98/GEN NMR

erre ene a

0 1
  C      -12.089      83.805      28.051
  O      -11.384      83.601      26.838
  P      -11.241      84.776      25.755
  C      -12.918      86.311      24.553
  O      -12.746      85.131      25.329
  C      -14.382      86.742      24.572
  O      -14.850      86.707      25.941
  C      -14.665      88.163      24.087
  O      -14.791      88.293      22.679
  C      -16.018      88.419      24.738
  O      -17.054      87.772      23.977
  C      -15.856      87.738      26.100
  N      -17.085      92.006      28.638
  C      -17.727      91.311      27.672
  N      -17.325      90.193      27.033
  C      -16.144      89.774      27.513
  C      -15.374      90.372      28.497
  C      -15.891      91.545      29.073
  N      -15.244      92.238      30.073
  N      -14.210      89.658      28.707
  C      -14.288      88.642      27.874
  N      -15.440      88.663      27.138
  O      -10.304      84.477      24.638
  O      -10.801      86.051      26.612
  H      -17.043      88.169      23.086
  H      -10.436      86.739      26.022
  H      -18.692      91.709      27.369
  H      -13.537      87.873      27.768
  H      -16.776      87.246      26.436
  H      -16.274      89.481      24.785
  H      -13.933      88.875      24.487
  H      -14.964      86.011      23.998
  H      -12.621      86.090      23.522
  H      -15.749      92.990      30.516
  H      -14.440      91.807      30.508
  H      -12.268      87.101      24.937
  P      -14.815      89.785      22.080
  C      -16.807      91.476      21.942
  O      -16.364      90.139      21.865
  O      -13.940      89.991      20.894
  O      -14.403      90.680      23.342
  H      -15.052      90.700      24.064
  H      -17.848      91.521      21.610
  H      -16.209      92.124      21.297
  H      -16.753      91.831      22.974
  H      -12.069      82.906      28.631
  H      -13.104      84.067      27.834
  H      -11.627      84.596      28.603

 3  4  5  6  7  8  9  10  11  12  22  25  29  30  31  32 0
 6-311+G(2d,p)
 ****
 33  36  37 0
 6-311+G(2d,p)
 ****
 1  2  13  14  15  16  17  18  19  20  21  23  24  26 0
 3-21G
 ****
 27  28  34  35  38  39  40  41  42  43  44  45  46  47  48 0
 3-21G
 ****


