%nproc=1
%NoSave
%Mem=1900MB
#P OB98/GEN NMR

erre ene a

0 1
  C      -61.547    -273.571     104.581
  O      -61.304    -273.716     103.180
  P      -62.388    -273.099     102.173
  C      -63.572    -275.381     101.733
  O      -63.691    -274.036     102.190
  C      -64.863    -276.152     102.026
  O      -65.930    -275.721     101.166
  C      -64.729    -277.649     101.783
  O      -64.049    -278.273     102.859
  C      -66.191    -278.075     101.651
  O      -66.756    -278.436     102.920
  C      -66.878    -276.807     101.082
  N      -67.361    -276.984      99.726
  C      -68.467    -277.829      99.577
  O      -68.962    -278.383     100.555
  N      -68.968    -278.032      98.317
  C      -68.396    -277.476      97.297
  N      -68.934    -277.721      96.069
  C      -67.204    -276.602      97.409
  C      -66.744    -276.403      98.639
  O      -61.753    -273.377     100.729
  O      -62.657    -271.640     102.389
  H      -66.232    -279.204     103.231
  H      -61.994    -272.661     100.105
  H      -66.762    -276.166      96.522
  H      -65.875    -275.778      98.817
  H      -67.733    -276.525     101.720
  H      -66.295    -278.949     100.999
  H      -64.206    -277.832     100.838
  H      -65.152    -275.963     103.068
  H      -69.750    -278.325      96.029
  H      -62.728    -275.869     102.226
  H      -68.566    -277.344      95.202
  H      -63.352    -275.372     100.657
  P      -62.462    -278.421     102.750
  C      -62.611    -280.907     102.126
  O      -62.225    -279.613     101.701
  O      -62.089    -279.119     104.139
  O      -61.676    -277.174     102.514
  H      -61.119    -279.176     104.236
  H      -62.594    -281.580     101.268
  H      -63.629    -280.886     102.538
  H      -61.915    -281.278     102.885
  H      -60.749    -274.026     105.130
  H      -62.471    -274.047     104.834
  H      -61.602    -272.531     104.828

 3  4  5  6  7  8  9  10  11  12  13  21  23  27  28  29  30  32 0
 6-311+G(2d,p)
 ****
 34  35 0
 6-311+G(2d,p)
 ****
 1  2  14  15  16  17  18  19  20  22  24  25  26 0
 3-21G
 ****
 31  33  36  37  38  39  40  41  42  43  44  45  46 0
 3-21G
 ****


