%nproc=1
%NoSave
%Mem=1900MB
#P OB98/GEN NMR

erre ene a

0 1
  C     -610.981     185.020     126.757
  O     -610.212     183.938     127.252
  H     -610.342     185.900     126.683
  H     -611.800     185.233     127.448
  H     -611.384     184.799     125.763
  P     -610.821     182.458     127.178
  C     -611.802     182.887     129.530
  O     -611.062     181.999     128.702
  C     -611.399     182.713     131.002
  O     -611.841     181.404     131.460
  C     -609.891     182.806     131.246
  O     -609.698     183.353     132.566
  C     -609.481     181.348     131.227
  O     -608.218     181.143     131.814
  C     -610.674     180.705     131.939
  N     -610.760     179.264     131.701
  C     -609.704     178.483     132.168
  O     -608.715     178.969     132.730
  N     -609.789     177.152     131.937
  C     -610.784     176.520     131.236
  O     -610.796     175.310     131.029
  C     -611.848     177.394     130.734
  C     -611.798     178.705     130.980
  O     -610.055     181.483     126.346
  O     -612.315     182.667     126.641
  H     -607.927     180.213     131.689
  H     -612.595     181.884     126.130
  H     -609.038     176.573     132.279
  H     -612.652     176.929     130.170
  H     -612.578     179.373     130.629
  H     -610.607     180.866     133.022
  H     -609.416     180.986     130.189
  H     -609.368     183.412     130.503
  H     -611.945     183.454     131.598
  H     -612.867     182.654     129.406
  H     -611.617     183.913     129.210
  P     -609.289     184.884     132.797
  C     -606.755     184.456     132.630
  O     -607.820     184.927     133.452
  O     -610.314     185.687     133.540
  O     -609.064     185.476     131.331
  H     -609.250     186.435     131.323
  H     -605.831     184.531     133.165
  H     -606.701     185.049     131.741
  H     -606.933     183.434     132.367

 6  7  8  9  10  11  12  13  14  15  16  26  31  32  33  34  35 0
 6-311+G(2d,p)
 ****
 36  37 0
 6-311+G(2d,p)
 ****
 1  2  3  4  5  17  18  19  20  21  22  23  24  25 0
 3-21G
 ****
 27  28  29  30  38  39  40  41  42  43  44  45 0
 3-21G
 ****


