%nproc=1
%NoSave
%Mem=1900MB
#P OB98/GEN NMR

erre ene a

0 1
  C       38.674     176.105     -29.750
  O       39.018     175.602     -31.026
  H       38.999     175.388     -28.991
  H       37.591     176.233     -29.674
  H       39.176     177.060     -29.573
  P       38.566     176.491     -32.284
  C       39.090     178.922     -33.017
  O       38.980     178.004     -31.939
  C       38.688     180.324     -32.568
  O       37.267     180.395     -32.325
  C       39.376     180.797     -31.291
  O       40.659     181.330     -31.574
  C       38.395     181.851     -30.801
  O       38.576     183.096     -31.512
  C       37.041     181.218     -31.149
  N       33.269     180.967     -27.801
  C       33.616     181.973     -28.680
  N       32.861     183.095     -28.646
  N       34.619     181.898     -29.513
  C       35.321     180.746     -29.399
  C       35.082     179.676     -28.567
  C       33.934     179.752     -27.689
  O       33.528     178.862     -26.948
  N       36.008     178.681     -28.760
  C       36.821     179.164     -29.679
  N       36.449     180.416     -30.095
  O       36.968     176.513     -32.171
  O       39.005     175.987     -33.616
  H       37.799     183.663     -31.363
  H       36.590     176.470     -33.070
  H       32.469     181.068     -27.205
  H       37.681     178.645     -30.080
  H       36.296     181.973     -31.421
  H       38.544     182.078     -29.744
  H       32.282     183.325     -27.852
  H       39.437     179.987     -30.554
  H       33.162     183.858     -29.238
  H       38.905     181.009     -33.398
  H       38.430     178.596     -33.827
  H       40.123     178.931     -33.378
  P       41.761     181.307     -30.411
  C       42.964     179.442     -29.063
  O       41.818     179.817     -29.815
  O       41.064     182.153     -29.244
  O       43.076     181.898     -30.788
  H       41.473     183.037     -29.187
  H       42.859     178.429     -28.734
  H       43.059     180.085     -28.213
  H       43.837     179.530     -29.676

 6  7  8  9  10  11  12  13  14  15  26  29  33  34 0
 6-311+G(2d,p)
 ****
 36  38  39  40  41 0
 6-311+G(2d,p)
 ****
 1  2  3  4  5  16  17  18  19  20  21  22  23  24  25 0
 3-21G
 ****
 27  28  30  31  32  35  37  42  43  44  45  46  47 0
 3-21G
 ****
 48  49 0
 3-21G
 ****


