%nproc=1
%NoSave
%Mem=1900MB
#P OB98/GEN NMR

erre ene a

0 1
  C      571.609     657.274     -80.353
  O      570.240     656.929     -80.256
  H      571.860     657.504     -81.392
  H      571.795     658.164     -79.740
  H      572.237     656.456     -79.984
  P      569.747     655.661     -81.106
  C      567.710     654.059     -81.054
  O      568.303     655.244     -80.538
  C      566.455     653.717     -80.253
  O      566.856     653.008     -79.048
  C      565.605     654.931     -79.832
  O      564.271     654.813     -80.347
  C      565.551     654.849     -78.314
  O      564.269     655.179     -77.776
  C      565.932     653.399     -78.016
  N      565.021     652.135     -73.171
  C      564.362     651.825     -74.315
  N      564.718     652.102     -75.586
  C      565.883     652.750     -75.607
  C      566.681     653.115     -74.539
  C      566.195     652.801     -73.261
  N      566.832     653.172     -72.090
  N      567.813     653.783     -74.962
  C      567.689     653.856     -76.268
  N      566.537     653.266     -76.711
  O      570.710     654.483     -80.604
  O      569.815     655.839     -82.589
  H      563.616     654.687     -78.307
  H      571.069     654.008     -81.375
  H      563.432     651.284     -74.194
  H      568.379     654.360     -76.950
  H      565.060     652.728     -78.068
  H      566.296     655.552     -77.897
  H      566.046     655.883     -80.163
  H      565.845     653.020     -80.843
  H      568.421     653.224     -80.972
  H      566.346     652.998     -71.220
  H      567.641     653.755     -72.154
  H      567.471     654.206     -82.106
  P      563.872     655.783     -81.559
  C      562.021     655.814     -83.390
  O      562.494     655.248     -82.173
  O      564.948     655.411     -82.691
  O      563.910     657.235     -81.217
  H      565.091     656.166     -83.282
  H      561.096     655.351     -83.663
  H      562.743     655.652     -84.163
  H      561.869     656.865     -83.259

 6  7  8  9  10  11  12  13  14  15  25  28  32  33  34  35 0
 6-311+G(2d,p)
 ****
 36  39  40 0
 6-311+G(2d,p)
 ****
 1  2  3  4  5  16  17  18  19  20  21  22  23  24 0
 3-21G
 ****
 26  27  29  30  31  37  38  41  42  43  44  45  46  47  48 0
 3-21G
 ****


