%nproc=1
%NoSave
%Mem=1900MB
#P OB98/GEN NMR

erre ene a

0 1
  C     -157.864    -451.775     260.863
  O     -158.624    -450.747     261.465
  H     -157.152    -452.165     261.596
  H     -157.306    -451.381     260.009
  H     -158.518    -452.589     260.537
  P     -159.761    -450.065     260.563
  C     -161.038    -449.392     262.731
  O     -160.472    -448.967     261.494
  C     -161.542    -448.182     263.511
  O     -160.421    -447.348     263.878
  C     -162.488    -447.281     262.732
  O     -163.806    -447.796     262.686
  C     -162.373    -445.979     263.517
  O     -163.234    -445.980     264.659
  C     -160.905    -445.987     263.962
  N     -158.203    -441.668     263.963
  C     -158.862    -442.318     264.945
  N     -159.543    -443.483     264.863
  C     -159.492    -443.971     263.615
  C     -158.865    -443.416     262.513
  C     -158.189    -442.203     262.722
  N     -157.549    -441.516     261.711
  N     -159.080    -444.193     261.391
  C     -159.814    -445.208     261.809
  N     -160.083    -445.116     263.145
  O     -160.858    -451.225     260.438
  O     -159.307    -449.574     259.229
  H     -163.049    -445.151     265.149
  H     -160.715    -451.722     259.610
  H     -158.843    -441.840     265.920
  H     -160.173    -446.017     261.186
  H     -160.787    -445.665     265.005
  H     -162.650    -445.120     262.897
  H     -162.101    -447.115     261.716
  H     -162.019    -448.537     264.435
  H     -160.272    -449.910     263.317
  H     -161.862    -450.089     262.523
  H     -157.103    -440.643     261.931
  H     -157.624    -441.861     260.757
  P     -164.567    -447.839     261.278
  C     -166.011    -449.974     261.628
  O     -165.981    -448.559     261.509
  O     -163.729    -448.914     260.437
  O     -164.649    -446.526     260.575
  H     -163.118    -448.468     259.824
  H     -167.020    -450.298     261.777
  H     -165.413    -450.275     262.463
  H     -165.623    -450.415     260.734

 6  7  8  9  10  11  12  13  14  15  25  28  32  33  34  35 0
 6-311+G(2d,p)
 ****
 36  37  40 0
 6-311+G(2d,p)
 ****
 1  2  3  4  5  16  17  18  19  20  21  22  23  24 0
 3-21G
 ****
 26  27  29  30  31  38  39 41  42  43  44  45  46  47  48 0
 3-21G
 ****


