%nproc=1
%NoSave
%Mem=1900MB
#P OB98/GEN NMR

erre ene a

0 1
  C     -218.202     287.485     -79.504
  O     -217.358     286.439     -79.944
  H     -217.678     288.437     -79.630
  H     -218.439     287.353     -78.441
  H     -219.123     287.507     -80.091
  P     -217.958     284.952     -79.879
  C     -216.931     284.591     -77.512
  O     -218.107     284.593     -78.319
  C     -216.877     283.306     -76.689
  O     -218.098     283.168     -75.931
  C     -216.762     282.031     -77.521
  O     -215.437     281.802     -77.967
  C     -217.263     280.984     -76.532
  O     -216.221     280.564     -75.639
  C     -218.339     281.755     -75.748
  N     -221.821     278.032     -75.886
  C     -220.595     278.102     -75.320
  N     -219.732     279.143     -75.318
  C     -220.259     280.196     -75.970
  C     -221.490     280.267     -76.603
  C     -222.298     279.122     -76.543
  N     -223.525     279.036     -77.147
  N     -221.651     281.500     -77.203
  C     -220.545     282.161     -76.939
  N     -219.675     281.416     -76.189
  O     -216.723     284.048     -80.362
  O     -219.179     284.721     -80.706
  H     -215.559     280.100     -76.184
  H     -216.802     283.874     -81.318
  H     -220.258     277.203     -74.808
  H     -220.322     283.175     -77.263
  H     -218.289     281.555     -74.672
  H     -217.633     280.093     -77.042
  H     -217.458     282.070     -78.373
  H     -216.040     283.381     -75.978
  H     -216.950     285.451     -76.839
  H     -216.052     284.668     -78.167
  H     -224.044     278.171     -77.083
  H     -223.844     279.801     -77.732
  P     -215.206     281.336     -79.479
  C     -216.090     278.966     -78.858
  O     -216.161     280.069     -79.745
  O     -213.731     280.700     -79.453
  O     -215.326     282.423     -80.494
  H     -213.084     281.344     -79.804
  H     -216.782     278.212     -79.170
  H     -216.336     279.288     -77.868
  H     -215.098     278.565     -78.866

 6  7  8  9  10  11  12  13  14  15  25  28  32  33  34  35 0
 6-311+G(2d,p)
 ****
 36  37  40 0
 6-311+G(2d,p)
 ****
 1  2  3  4  5  16  17  18  19  20  21  22  23  24 0
 3-21G
 ****
 26  27  29  30  31  38  39 41  42  43  44  45  46  47  48 0
 3-21G
 ****


