%nproc=1
%NoSave
%Mem=1900MB
#P OB98/GEN NMR

erre ene a

0 1
  C       44.284    -153.734    -187.789
  O       44.022    -152.480    -188.395
  P       44.202    -152.390    -189.990
  C       45.933    -150.485    -189.554
  O       45.619    -151.684    -190.242
  C       47.354    -150.572    -188.988
  O       47.555    -151.843    -188.340
  C       48.452    -150.449    -190.038
  O       48.689    -149.088    -190.351
  C       49.620    -151.131    -189.333
  O       50.257    -150.232    -188.405
  C       48.920    -152.281    -188.594
  N       51.532    -156.492    -189.590
  C       51.921    -155.336    -188.935
  N       53.177    -155.325    -188.437
  N       51.151    -154.294    -188.782
  C       49.930    -154.443    -189.346
  C       49.435    -155.528    -190.031
  C       50.278    -156.695    -190.148
  O       49.946    -157.774    -190.632
  N       48.157    -155.301    -190.476
  C       47.873    -154.094    -190.030
  N       48.904    -153.537    -189.320
  O       43.132    -151.285    -190.414
  O       44.021    -153.683    -190.725
  H       49.702    -150.145    -187.610
  H       42.315    -151.705    -190.747
  H       52.163    -157.270    -189.664
  H       46.929    -153.588    -190.176
  H       49.378    -152.482    -187.617
  H       50.394    -151.454    -190.035
  H       53.835    -156.083    -188.536
  H       48.186    -151.013    -190.939
  H       53.481    -154.487    -187.954
  H       47.459    -149.789    -188.227
  H       45.226    -150.344    -188.732
  H       45.845    -149.640    -190.245
  P       48.365    -148.606    -191.847
  C       50.614    -147.399    -192.328
  O       49.762    -148.494    -192.619
  O       47.908    -147.085    -191.651
  O       47.313    -149.407    -192.540
  H       47.203    -146.873    -192.292
  H       51.649    -147.707    -192.484
  H       50.496    -147.057    -191.297
  H       50.384    -146.575    -193.009
  H       44.128    -153.659    -186.733
  H       45.298    -154.018    -187.981
  H       43.624    -154.471    -188.195

 3  4  5  6  7  8  9  10  11  12  23  26  30  31 0
 6-311+G(2d,p)
 ****
 33  35  36  37  38 0
 6-311+G(2d,p)
 ****
 1  2  13  14  15  16  17  18  19  20  21  22  24  25 0
 3-21G
 ****
 27  28  29  32  34  39  40  41  42  43  44  45  46  47  48  49 0
 3-21G
 ****


