%nproc=1
%NoSave
%Mem=1900MB
#P OB98/GEN NMR

erre ene a

0 1
  C      -55.463      86.875    -493.953
  O      -54.622      85.787    -493.646
  H      -55.817      87.319    -493.019
  H      -56.326      86.522    -494.523
  H      -54.934      87.642    -494.526
  P      -53.619      85.247    -494.768
  C      -53.967      84.935    -497.307
  O      -54.493      84.711    -496.006
  C      -55.069      85.281    -498.309
  O      -55.620      86.580    -497.997
  C      -54.553      85.355    -499.747
  O      -54.543      84.111    -500.434
  C      -55.543      86.324    -500.389
  O      -56.695      85.634    -500.901
  C      -55.944      87.243    -499.228
  N      -55.831      91.919    -501.295
  C      -56.582      90.822    -501.674
  N      -57.369      90.990    -502.757
  N      -56.540      89.674    -501.051
  C      -55.635      89.630    -500.047
  C      -54.820      90.643    -499.598
  C      -54.924      91.933    -500.242
  O      -54.294      92.940    -499.934
  N      -53.997      90.216    -498.582
  C      -54.255      88.924    -498.483
  N      -55.296      88.542    -499.294
  O      -53.045      83.890    -494.135
  O      -52.497      86.176    -495.129
  H      -56.389      84.836    -501.369
  H      -52.133      83.745    -494.446
  H      -55.922      92.785    -501.794
  H      -53.753      88.236    -497.812
  H      -57.025      87.427    -499.219
  H      -55.088      86.848    -501.232
  H      -57.374      91.823    -503.324
  H      -53.558      85.811    -499.781
  H      -57.789      90.161    -503.180
  H      -55.888      84.556    -498.212
  H      -53.467      84.017    -497.605
  H      -53.213      85.727    -497.280
  P      -53.698      83.925    -501.775
  C      -53.466      85.246    -504.033
  O      -54.172      85.023    -502.828
  O      -54.278      82.559    -502.376
  O      -52.212      83.870    -501.597
  H      -53.692      81.812    -502.160
  H      -53.949      86.020    -504.591
  H      -53.452      84.345    -504.610
  H      -52.462      85.541    -503.809

 6  7  8  9  10  11  12  13  14  15  26  29  33  34 0
 6-311+G(2d,p)
 ****
 36  38  39  40  41 0
 6-311+G(2d,p)
 ****
 1  2  3  4  5  16  17  18  19  20  21  22  23  24  25 0
 3-21G
 ****
 27  28  30  31  32  35  37  42  43  44  45  46  47 0
 3-21G
 ****
 48  49 0
 3-21G
 ****


