%nproc=1
%NoSave
%Mem=1900MB
#P OB98/GEN NMR

erre ene a

0 1
  C     -474.871    1180.923     740.073
  O     -475.969    1180.806     740.957
  H     -475.024    1180.253     739.227
  H     -473.945    1180.631     740.585
  H     -474.778    1181.948     739.694
  P     -476.084    1181.819     742.186
  C     -477.121    1180.115     743.832
  O     -477.312    1181.316     743.082
  C     -478.482    1179.512     744.231
  O     -479.380    1180.603     744.600
  C     -479.167    1178.711     743.117
  O     -479.963    1177.688     743.753
  C     -480.048    1179.782     742.489
  O     -481.008    1179.249     741.617
  C     -480.562    1180.459     743.780
  N     -481.216    1181.734     743.592
  C     -482.186    1182.120     744.514
  O     -482.521    1181.436     745.482
  N     -482.792    1183.326     744.292
  C     -482.512    1184.185     743.270
  O     -483.057    1185.270     743.138
  C     -481.491    1183.733     742.321
  C     -480.890    1182.557     742.525
  O     -476.107    1183.273     741.842
  O     -474.806    1181.454     743.094
  H     -474.103    1182.115     742.955
  H     -480.552    1178.828     740.851
  H     -483.492    1183.615     744.950
  H     -481.250    1184.384     741.489
  H     -480.134    1182.205     741.845
  H     -481.239    1179.776     744.313
  H     -479.446    1180.474     741.906
  H     -478.469    1178.244     742.416
  H     -478.335    1178.902     745.129
  H     -476.541    1180.356     744.725
  H     -476.559    1179.405     743.219
  P     -479.662    1176.115     743.591
  C     -482.068    1175.190     743.718
  O     -480.812    1175.314     744.361
  O     -478.271    1175.724     743.986
  O     -479.917    1175.796     742.050
  H     -479.386    1175.010     741.782
  H     -482.736    1174.635     744.343
  H     -481.943    1174.678     742.787
  H     -482.474    1176.163     743.538

 6  7  8  9  10  11  12  13  14  15  16  27  31  32  33  34  35 0
 6-311+G(2d,p)
 ****
 36  37 0
 6-311+G(2d,p)
 ****
 1  2  3  4  5  17  18  19  20  21  22  23  24  25 0
 3-21G
 ****
 26  28  29  30  38  39  40  41  42  43  44  45 0
 3-21G
 ****


