%nproc=1
%NoSave
%Mem=1900MB
#P OB98/GEN NMR

erre ene a

0 1
  C     -198.341     663.316    -331.681
  O     -199.003     662.082    -331.484
  P     -198.203     660.803    -330.945
  C     -198.783     661.568    -328.553
  O     -197.747     661.181    -329.454
  C     -198.574     660.934    -327.176
  O     -198.604     659.494    -327.271
  C     -197.238     661.279    -326.531
  O     -197.275     662.591    -325.994
  C     -197.123     660.173    -325.495
  O     -197.864     660.486    -324.307
  C     -197.752     658.970    -326.232
  N     -196.754     658.055    -326.761
  C     -196.115     657.238    -325.822
  O     -196.386     657.336    -324.625
  N     -195.155     656.354    -326.253
  C     -194.835     656.322    -327.517
  N     -193.868     655.437    -327.880
  C     -195.461     657.190    -328.529
  C     -196.398     658.026    -328.089
  O     -197.118     660.307    -331.840
  O     -199.366     659.725    -330.700
  H     -197.872     659.673    -323.766
  H     -199.701     659.357    -331.555
  H     -195.157     657.131    -329.565
  H     -196.906     658.701    -328.768
  H     -198.409     658.404    -325.553
  H     -196.085     660.002    -325.189
  H     -196.435     661.182    -327.268
  H     -199.402     661.248    -326.528
  H     -193.441     654.883    -327.151
  H     -199.740     661.229    -328.965
  H     -193.522     655.354    -328.822
  H     -198.809     662.661    -328.477
  P     -195.905     663.383    -325.733
  C     -195.708     664.161    -328.168
  O     -195.101     663.437    -327.117
  O     -195.112     662.918    -324.554
  O     -196.383     664.893    -325.535
  H     -195.906     665.280    -324.773
  H     -194.945     664.406    -328.913
  H     -196.152     665.092    -327.800
  H     -196.478     663.549    -328.640
  H     -199.039     664.042    -332.042
  H     -197.556     663.189    -332.397
  H     -197.927     663.651    -330.753

 3  4  5  6  7  8  9  10  11  12  13  23  27  28  29  30  32 0
 6-311+G(2d,p)
 ****
 34  35 0
 6-311+G(2d,p)
 ****
 1  2  14  15  16  17  18  19  20  21  22  24  25  26 0
 3-21G
 ****
 31  33  36  37  38  39  40  41  42  43  44  45  46 0
 3-21G
 ****


