%nproc=1
%NoSave
%Mem=1900MB
#P OB98/GEN NMR

erre ene a

0 1
  C      307.015    -180.983    -163.638
  O      306.729    -181.837    -164.725
  H      307.546    -181.555    -162.870
  H      306.081    -180.599    -163.208
  H      307.647    -180.149    -163.957
  P      306.052    -181.169    -166.019
  C      303.639    -182.078    -165.600
  O      304.501    -180.948    -165.651
  C      302.349    -181.721    -164.870
  O      301.410    -182.825    -165.012
  C      302.545    -181.481    -163.364
  O      301.677    -180.432    -162.932
  C      302.115    -182.798    -162.740
  O      301.704    -182.685    -161.387
  C      300.977    -183.208    -163.688
  N      300.684    -184.636    -163.632
  C      299.956    -185.099    -162.544
  O      299.471    -184.386    -161.665
  N      299.783    -186.465    -162.484
  C      300.275    -187.374    -163.375
  O      300.110    -188.590    -163.252
  C      301.051    -186.824    -164.492
  C      301.219    -185.503    -164.578
  O      306.002    -182.374    -167.078
  O      306.734    -179.960    -166.558
  H      306.817    -182.386    -167.619
  H      301.094    -181.920    -161.316
  H      299.256    -186.818    -161.703
  H      301.462    -187.526    -165.211
  H      301.791    -185.067    -165.384
  H      300.069    -182.633    -163.465
  H      302.929    -183.525    -162.783
  H      303.584    -181.237    -163.103
  H      301.893    -180.841    -165.350
  H      304.151    -182.891    -165.068
  H      303.420    -182.409    -166.626
  P      302.239    -178.924    -163.013
  C      302.633    -178.561    -160.445
  O      303.206    -178.754    -161.738
  O      300.930    -178.086    -162.639
  O      302.852    -178.602    -164.337
  H      300.374    -178.506    -161.966
  H      303.414    -178.467    -159.719
  H      302.016    -179.400    -160.199
  H      302.039    -177.671    -160.447

 6  7  8  9  10  11  12  13  14  15  16  27  31  32  33  34  35 0
 6-311+G(2d,p)
 ****
 36  37 0
 6-311+G(2d,p)
 ****
 1  2  3  4  5  17  18  19  20  21  22  23  24  25 0
 3-21G
 ****
 26  28  29  30  38  39  40  41  42  43  44  45 0
 3-21G
 ****


