%nproc=1
%NoSave
%Mem=1900MB
#P OB98/GEN NMR

erre ene a

0 1
  C      797.780     319.765     726.062
  O      799.138     319.367     726.177
  P      799.491     318.169     727.197
  C      800.651     316.890     725.227
  O      799.690     316.864     726.280
  C      800.515     315.625     724.356
  O      800.802     314.441     725.157
  C      799.134     315.444     723.706
  O      799.376     314.899     722.391
  C      798.479     314.421     724.609
  O      797.427     313.726     723.931
  C      799.682     313.537     724.964
  N      799.468     312.718     726.154
  C      798.782     311.524     725.971
  O      798.307     311.172     724.883
  N      798.618     310.754     727.089
  C      798.970     311.094     728.365
  O      798.811     310.378     729.343
  C      799.595     312.431     728.518
  C      799.791     313.173     727.422
  O      798.073     317.947     727.888
  O      800.628     318.493     728.107
  H      797.314     318.062     727.297
  H      797.791     313.317     723.112
  H      798.160     309.867     726.968
  H      799.826     312.771     729.512
  H      800.216     314.174     727.497
  H      799.944     312.874     724.134
  H      798.067     314.907     725.501
  H      798.579     316.372     723.632
  H      801.288     315.693     723.564
  H      801.671     316.919     725.643
  H      800.508     317.807     724.643
  P      799.328     315.896     721.138
  C      801.908     315.853     720.655
  O      800.756     316.604     721.022
  O      798.392     317.061     721.724
  O      798.771     315.302     719.878
  H      798.660     317.337     722.612
  H      802.703     316.561     720.407
  H      801.696     315.247     719.767
  H      802.218     315.219     721.473
  H      797.701     320.563     725.354
  H      797.424     320.097     727.015
  H      797.192     318.935     725.730

 3  4  5  6  7  8  9  10  11  12  13  24  28  29  30  31  32 0
 6-311+G(2d,p)
 ****
 33  34 0
 6-311+G(2d,p)
 ****
 1  2  14  15  16  17  18  19  20  21  22  23  25  26  27 0
 3-21G
 ****
 35  36  37  38  39  40  41  42  43  44  45 0
 3-21G
 ****


