%nproc=1
%NoSave
%Mem=1900MB
#P OB98/GEN NMR

erre ene a

0 1
  C     -227.676     106.222     -84.396
  O     -227.749     107.513     -84.969
  H     -226.655     105.848     -84.505
  H     -228.356     105.536     -84.907
  H     -227.921     106.262     -83.331
  P     -229.157     108.277     -84.937
  C     -229.858     107.206     -87.179
  O     -229.617     108.413     -86.467
  C     -230.010     107.500     -88.667
  O     -231.285     108.118     -88.931
  C     -228.946     108.445     -89.225
  O     -227.747     107.737     -89.494
  C     -229.646     108.938     -90.480
  O     -229.587     107.922     -91.500
  C     -231.092     109.106     -89.981
  N     -233.651     113.420     -90.704
  C     -233.533     112.312     -91.520
  N     -234.153     112.384     -92.718
  N     -232.855     111.241     -91.199
  C     -232.232     111.343     -90.002
  C     -232.260     112.394     -89.114
  C     -233.060     113.550     -89.455
  O     -233.205     114.547     -88.754
  N     -231.451     112.159     -88.032
  C     -230.966     110.953     -88.247
  N     -231.398     110.419     -89.439
  O     -229.194     109.569     -84.179
  O     -230.173     107.197     -84.340
  H     -229.885     107.093     -91.084
  H     -230.250     107.283     -83.372
  H     -234.173     114.222     -91.017
  H     -230.303     110.420     -87.576
  H     -231.829     108.900     -90.765
  H     -229.201     109.842     -90.893
  H     -234.435     113.269     -93.121
  H     -228.777     109.301     -88.563
  H     -234.037     111.602     -93.350
  H     -230.001     106.542     -89.202
  H     -230.777     106.765     -86.780
  H     -229.035     106.502     -87.026
  P     -226.544     107.712     -88.431
  C     -225.202     109.535     -89.679
  O     -225.252     108.179     -89.257
  O     -226.382     106.424     -87.698
  O     -226.819     108.966     -87.483
  H     -227.402     108.758     -86.713
  H     -224.292     109.708     -90.215
  H     -225.239     110.176     -88.823
  H     -226.036     109.741     -90.316

 6  7  8  9  10  11  12  13  14  15  26  29  33  34 0
 6-311+G(2d,p)
 ****
 36  38  39  40  41 0
 6-311+G(2d,p)
 ****
 1  2  3  4  5  16  17  18  19  20  21  22  23  24  25 0
 3-21G
 ****
 27  28  30  31  32  35  37  42  43  44  45  46  47 0
 3-21G
 ****
 48  49 0
 3-21G
 ****


