%nproc=1
%NoSave
%Mem=1900MB
#P OB98/GEN NMR

erre ene a

0 1
  C     -356.499     -55.737     -38.240
  O     -355.642     -56.040     -37.154
  H     -357.522     -55.643     -37.861
  H     -356.475     -56.537     -38.981
  H     -356.209     -54.790     -38.705
  P     -354.080     -56.235     -37.456
  C     -354.188     -58.247     -35.838
  O     -353.752     -57.764     -37.103
  C     -354.228     -59.771     -35.844
  O     -355.244     -60.243     -36.749
  C     -352.913     -60.423     -36.284
  O     -351.998     -60.461     -35.204
  C     -353.420     -61.800     -36.690
  O     -353.668     -62.593     -35.514
  C     -354.745     -61.451     -37.392
  N     -354.860     -63.543     -42.005
  C     -354.956     -64.139     -40.755
  N     -355.052     -65.486     -40.742
  N     -354.931     -63.469     -39.636
  C     -354.763     -62.140     -39.805
  C     -354.638     -61.441     -40.987
  C     -354.714     -62.183     -42.225
  O     -354.655     -61.696     -43.352
  N     -354.413     -60.102     -40.760
  C     -354.439     -59.993     -39.446
  N     -354.634     -61.201     -38.819
  O     -353.152     -55.252     -36.803
  O     -353.981     -56.190     -39.051
  H     -354.206     -63.358     -35.804
  H     -353.800     -55.287     -39.368
  H     -354.862     -64.120     -42.835
  H     -354.324     -59.064     -38.899
  H     -355.501     -62.231     -37.256
  H     -352.709     -62.350     -37.310
  H     -354.785     -66.047     -41.539
  H     -352.495     -59.930     -37.168
  H     -355.068     -65.941     -39.839
  H     -354.511     -60.105     -34.836
  H     -355.187     -57.834     -35.655
  H     -353.512     -57.901     -35.045
  P     -350.590     -59.690     -35.290
  C     -350.075     -60.511     -32.896
  O     -349.636     -60.445     -34.243
  O     -350.669     -58.208     -35.113
  O     -349.973     -60.135     -36.701
  H     -350.251     -59.554     -37.451
  H     -349.351     -61.037     -32.310
  H     -351.012     -61.026     -32.851
  H     -350.194     -59.520     -32.511

 6  7  8  9  10  11  12  13  14  15  26  29  33  34 0
 6-311+G(2d,p)
 ****
 36  38  39  40  41 0
 6-311+G(2d,p)
 ****
 1  2  3  4  5  16  17  18  19  20  21  22  23  24  25 0
 3-21G
 ****
 27  28  30  31  32  35  37  42  43  44  45  46  47 0
 3-21G
 ****
 48  49 0
 3-21G
 ****


