%nproc=1
%NoSave
%Mem=1900MB
#P OB98/GEN NMR

erre ene a

0 1
  C      158.156    -120.501     844.349
  O      157.576    -121.532     845.155
  P      156.113    -122.055     844.769
  C      155.145    -120.170     846.281
  O      155.081    -121.530     845.877
  C      153.971    -119.829     847.203
  O      152.699    -120.000     846.539
  C      153.902    -120.706     848.453
  O      154.770    -120.242     849.479
  C      152.452    -120.508     848.875
  O      152.316    -119.261     849.574
  C      151.729    -120.444     847.524
  N      148.703    -124.270     848.886
  C      149.023    -123.099     849.558
  N      148.448    -122.922     850.763
  N      149.829    -122.196     849.082
  C      150.325    -122.496     847.857
  C      150.090    -123.618     847.092
  C      149.202    -124.625     847.634
  O      148.889    -125.685     847.090
  N      150.766    -123.567     845.911
  C      151.407    -122.411     845.934
  N      151.180    -121.730     847.112
  O      156.198    -123.628     845.078
  O      155.721    -121.796     843.346
  H      151.364    -119.164     849.797
  H      155.582    -124.114     844.507
  H      148.081    -124.934     849.292
  H      152.035    -122.027     845.146
  H      150.901    -119.731     847.523
  H      152.109    -121.294     849.550
  H      147.773    -123.564     851.169
  H      154.089    -121.767     848.203
  H      148.640    -122.061     851.252
  H      154.070    -118.781     847.516
  H      155.131    -119.516     845.406
  H      156.106    -119.987     846.774
  P      156.323    -120.661     849.400
  C      156.171    -122.783     850.879
  O      156.632    -121.459     850.753
  O      157.073    -119.258     849.584
  O      156.715    -121.339     848.128
  H      157.920    -119.275     849.102
  H      156.602    -123.220     851.789
  H      156.461    -123.387     850.026
  H      155.069    -122.794     850.981
  H      159.127    -120.257     844.726
  H      157.533    -119.631     844.380
  H      158.241    -120.843     843.339

 3  4  5  6  7  8  9  10  11  12  23  26  30  31 0
 6-311+G(2d,p)
 ****
 33  35  36  37  38 0
 6-311+G(2d,p)
 ****
 1  2  13  14  15  16  17  18  19  20  21  22  24  25 0
 3-21G
 ****
 27  28  29  32  34  39  40  41  42  43  44  45  46  47  48  49 0
 3-21G
 ****


