%nproc=1
%NoSave
%Mem=1900MB
#P OB98/GEN NMR

erre ene a

0 1
  C      133.574     -32.815      87.971
  O      134.091     -33.287      86.738
  P      133.341     -34.507      86.021
  C      134.927     -36.556      86.197
  O      134.459     -35.478      85.400
  C      135.853     -37.468      85.391
  O      135.065     -38.270      84.471
  C      136.889     -36.707      84.558
  O      138.101     -37.473      84.491
  C      136.285     -36.694      83.169
  O      137.284     -36.521      82.165
  C      135.592     -38.056      83.146
  N      134.568     -38.449      78.214
  C      135.750     -38.686      78.885
  N      136.825     -38.984      78.123
  N      135.867     -38.641      80.186
  C      134.710     -38.323      80.817
  C      133.473     -38.082      80.262
  C      133.362     -38.124      78.821
  O      132.352     -37.896      78.164
  N      132.533     -37.828      81.226
  C      133.203     -37.872      82.360
  N      134.534     -38.133      82.161
  O      132.686     -33.817      84.733
  O      132.302     -35.177      86.854
  H      136.816     -36.426      81.313
  H      131.726     -33.712      84.866
  H      134.531     -38.485      77.208
  H      132.783     -37.697      83.342
  H      136.303     -38.865      82.939
  H      135.565     -35.874      83.080
  H      136.816     -38.969      77.114
  H      137.116     -35.700      84.925
  H      137.713     -39.118      78.588
  H      136.346     -38.163      86.080
  H      134.072     -37.137      86.547
  H      135.454     -36.162      87.072
  P      139.453     -36.633      84.278
  C      140.581     -38.136      82.477
  O      140.559     -37.696      83.819
  O      139.886     -36.250      85.769
  O      139.297     -35.435      83.403
  H      140.430     -35.441      85.765
  H      141.526     -37.828      82.020
  H      139.754     -37.725      81.892
  H      140.517     -39.227      82.460
  H      134.177     -32.004      88.324
  H      133.586     -33.608      88.690
  H      132.569     -32.477      87.830

 3  4  5  6  7  8  9  10  11  12  23  26  30  31 0
 6-311+G(2d,p)
 ****
 33  35  36  37  38 0
 6-311+G(2d,p)
 ****
 1  2  13  14  15  16  17  18  19  20  21  22  24  25 0
 3-21G
 ****
 27  28  29  32  34  39  40  41  42  43  44  45  46  47  48  49 0
 3-21G
 ****


