%nproc=1
%NoSave
%Mem=1900MB
#P OB98/GEN NMR

erre ene a

0 1
  C       24.971     -16.060       4.510
  O       24.041     -16.774       5.294
  H       25.363     -16.729       3.740
  H       25.800     -15.723       5.139
  H       24.506     -15.199       4.024
  P       23.002     -15.954       6.192
  C       24.767     -14.647       7.546
  O       23.723     -15.611       7.586
  C       25.737     -14.808       8.717
  O       26.835     -13.878       8.588
  C       25.079     -14.500      10.062
  O       24.364     -15.573      10.647
  C       26.283     -14.114      10.917
  O       26.904     -15.280      11.482
  C       27.216     -13.445       9.905
  N       28.629      -9.243      12.442
  C       28.824     -10.568      12.778
  N       29.419     -10.800      13.969
  N       28.451     -11.566      12.022
  C       27.783     -11.183      10.908
  C       27.518      -9.903      10.476
  C       27.984      -8.803      11.295
  O       27.830      -7.612      11.046
  N       26.819      -9.906       9.293
  C       26.599     -11.182       9.051
  N       27.188     -11.997       9.988
  O       21.924     -17.060       6.626
  O       22.340     -14.796       5.511
  H       26.232     -15.772      11.987
  H       21.067     -16.635       6.806
  H       28.962      -8.515      13.049
  H       26.046     -11.569       8.202
  H       28.257     -13.756      10.054
  H       25.995     -13.472      11.754
  H       29.617     -10.069      14.635
  H       24.425     -13.626       9.976
  H       29.339     -11.737      14.367
  H       26.163     -15.817       8.697
  H       24.291     -13.665       7.587
  H       25.303     -14.708       6.595
  P       22.816     -15.399      11.015
  C       23.418     -15.467      13.546
  O       22.621     -15.973      12.498
  O       22.106     -16.490      10.086
  O       22.266     -14.033      10.788
  H       21.773     -16.072       9.270
  H       23.158     -15.957      14.461
  H       23.251     -14.415      13.645
  H       24.450     -15.645      13.327

 6  7  8  9  10  11  12  13  14  15  26  29  33  34 0
 6-311+G(2d,p)
 ****
 36  38  39  40  41 0
 6-311+G(2d,p)
 ****
 1  2  3  4  5  16  17  18  19  20  21  22  23  24  25 0
 3-21G
 ****
 27  28  30  31  32  35  37  42  43  44  45  46  47 0
 3-21G
 ****
 48  49 0
 3-21G
 ****


