%nproc=1
%NoSave
%Mem=1900MB
#P OB98/GEN NMR

erre ene a

0 1
  C     -409.071      57.351     398.472
  O     -409.387      58.674     398.088
  H     -409.573      57.131     399.417
  H     -407.993      57.251     398.618
  H     -409.413      56.634     397.720
  P     -408.927      59.191     396.643
  C     -407.035      60.577     397.727
  O     -407.378      59.587     396.766
  C     -405.924      61.489     397.193
  O     -406.187      61.769     395.784
  C     -405.822      62.849     397.912
  O     -404.445      63.254     397.856
  C     -406.690      63.714     397.015
  O     -406.561      65.084     397.290
  C     -406.215      63.204     395.645
  N     -407.046      63.597     394.511
  C     -406.836      64.860     393.964
  O     -405.999      65.670     394.365
  N     -407.644      65.191     392.905
  C     -408.602      64.393     392.348
  O     -409.272      64.731     391.379
  C     -408.780      63.076     392.974
  C     -408.002      62.740     394.008
  O     -409.798      60.226     396.016
  O     -408.880      57.852     395.762
  H     -409.677      57.801     395.201
  H     -407.186      65.582     396.720
  H     -407.503      66.098     392.494
  H     -409.541      62.426     392.564
  H     -408.105      61.769     394.483
  H     -405.185      63.532     395.465
  H     -407.746      63.476     397.175
  H     -406.145      62.809     398.956
  H     -404.970      60.946     397.236
  H     -406.692      60.068     398.633
  H     -407.926      61.169     397.965
  P     -403.406      63.020     399.053
  C     -403.611      65.194     400.447
  O     -403.942      63.814     400.345
  O     -401.986      63.340     398.701
  O     -403.560      61.474     399.456
  H     -402.730      61.155     399.853
  H     -404.028      65.595     401.347
  H     -404.010      65.720     399.604
  H     -402.547      65.305     400.466

 6  7  8  9  10  11  12  13  14  15  16  27  31  32  33  34  35 0
 6-311+G(2d,p)
 ****
 36  37 0
 6-311+G(2d,p)
 ****
 1  2  3  4  5  17  18  19  20  21  22  23  24  25 0
 3-21G
 ****
 26  28  29  30  38  39  40  41  42  43  44  45 0
 3-21G
 ****


