%nproc=1
%NoSave
%Mem=1900MB
#P OB98/GEN NMR

erre ene a

0 1
  C     -134.551     -58.960      86.405
  O     -134.442     -58.988      84.980
  P     -134.989     -57.710      84.173
  C     -133.501     -58.302      82.106
  O     -134.801     -58.061      82.616
  C     -133.098     -59.767      82.307
  O     -134.143     -60.641      81.782
  C     -131.780     -60.159      81.632
  O     -131.125     -61.089      82.508
  C     -132.238     -60.863      80.367
  O     -131.241     -61.728      79.846
  C     -133.502     -61.563      80.875
  N     -134.400     -61.964      79.796
  C     -134.190     -63.219      79.237
  O     -133.251     -63.945      79.557
  N     -135.070     -63.592      78.257
  C     -136.069     -62.818      77.741
  O     -136.831     -63.203      76.864
  C     -136.171     -61.459      78.294
  C     -135.343     -61.101      79.279
  O     -133.851     -56.633      84.479
  O     -136.368     -57.312      84.577
  H     -132.956     -57.013      84.516
  H     -131.626     -62.256      79.117
  H     -134.955     -64.513      77.860
  H     -136.913     -60.794      77.869
  H     -135.377     -60.101      79.691
  H     -133.238     -62.456      81.455
  H     -132.489     -60.121      79.600
  H     -131.126     -59.305      81.444
  H     -133.033     -59.954      83.385
  H     -132.776     -57.663      82.620
  H     -133.473     -58.025      81.046
  P     -129.822     -60.590      83.311
  C     -130.084     -62.082      85.444
  O     -129.369     -61.793      84.266
  O     -130.503     -59.558      84.332
  O     -128.765     -59.958      82.469
  H     -131.292     -59.919      84.767
  H     -129.768     -63.062      85.816
  H     -131.160     -62.116      85.257
  H     -129.865     -61.330      86.207
  H     -134.152     -59.866      86.811
  H     -135.580     -58.868      86.682
  H     -134.002     -58.125      86.788

 3  4  5  6  7  8  9  10  11  12  13  24  28  29  30  31  32 0
 6-311+G(2d,p)
 ****
 33  34 0
 6-311+G(2d,p)
 ****
 1  2  14  15  16  17  18  19  20  21  22  23  25  26  27 0
 3-21G
 ****
 35  36  37  38  39  40  41  42  43  44  45 0
 3-21G
 ****


