%nproc=1
%NoSave
%Mem=1900MB
#P OB98/GEN NMR

erre ene a

0 1
  C      -21.557    -438.782    -125.605
  O      -20.220    -439.032    -125.160
  P      -19.497    -440.332    -125.779
  C      -17.286    -439.204    -126.551
  O      -17.910    -440.125    -125.656
  C      -15.934    -438.725    -126.019
  O      -16.138    -437.987    -124.788
  C      -14.927    -439.839    -125.714
  O      -13.613    -439.384    -126.062
  C      -14.982    -439.955    -124.198
  O      -13.799    -440.533    -123.659
  C      -15.205    -438.490    -123.823
  N      -13.991    -437.897    -118.947
  C      -13.180    -437.916    -120.058
  N      -11.850    -437.774    -119.842
  N      -13.623    -438.052    -121.280
  C      -14.975    -438.149    -121.353
  C      -15.887    -438.141    -120.324
  C      -15.373    -438.027    -118.973
  O      -16.037    -438.062    -117.941
  N      -17.171    -438.265    -120.789
  C      -17.036    -438.357    -122.097
  N      -15.721    -438.304    -122.486
  O      -19.788    -440.199    -127.349
  O      -20.013    -441.622    -125.237
  H      -14.018    -440.842    -122.757
  H      -20.239    -440.998    -127.672
  H      -13.595    -437.810    -118.026
  H      -17.846    -438.491    -122.802
  H      -14.275    -437.911    -123.911
  H      -15.833    -440.579    -123.913
  H      -11.449    -437.598    -118.934
  H      -15.139    -440.791    -126.214
  H      -11.242    -437.736    -120.651
  H      -15.516    -438.024    -126.750
  H      -17.943    -438.343    -126.695
  H      -17.159    -439.699    -127.521
  P      -12.879    -440.167    -127.254
  C      -11.506    -438.066    -127.936
  O      -11.489    -439.405    -127.484
  O      -13.747    -439.773    -128.543
  O      -12.795    -441.642    -127.056
  H      -13.686    -440.473    -129.219
  H      -12.506    -437.624    -127.890
  H      -11.153    -438.033    -128.973
  H      -10.831    -437.473    -127.313
  H      -21.932    -437.899    -125.130
  H      -22.179    -439.615    -125.351
  H      -21.560    -438.645    -126.666

 3  4  5  6  7  8  9  10  11  12  23  26  30  31  33  0
 6-311+G(2d,p)
 ****
 35  36  37  38 0
 6-311+G(2d,p)
 ****
 1  2  13  14  15  16  17  18  19  20  21  22  24  25  27  28  29 0
 3-21G
 ****
 32  34  39  40  41  42  43  44  45  46  47  48  49 0
 3-21G
 ****


