%nproc=1
%NoSave
%Mem=1900MB
#P OB98/GEN NMR

erre ene a

0 1
  C      151.219      28.113    -348.877
  O      152.119      27.218    -348.251
  H      151.240      27.934    -349.956
  H      151.515      29.148    -348.690
  H      150.201      27.947    -348.515
  P      152.272      27.288    -346.660
  C      150.249      25.768    -346.145
  O      150.797      27.078    -346.066
  C      149.661      25.367    -344.796
  O      150.685      25.357    -343.784
  C      148.561      26.303    -344.295
  O      147.326      25.996    -344.917
  C      148.582      25.980    -342.810
  O      147.915      24.725    -342.577
  C      150.092      25.838    -342.545
  N      150.967      29.111    -338.773
  C      150.172      27.980    -338.801
  N      149.480      27.709    -337.673
  N      150.052      27.200    -339.846
  C      150.750      27.636    -340.920
  C      151.556      28.746    -341.018
  C      151.725      29.570    -339.842
  O      152.432      30.570    -339.769
  N      152.045      28.900    -342.291
  C      151.566      27.863    -342.948
  N      150.759      27.073    -342.165
  O      152.977      28.494    -346.112
  O      153.021      25.929    -346.279
  H      148.423      24.047    -343.056
  H      153.987      26.053    -346.249
  H      151.004      29.679    -337.945
  H      151.770      27.637    -343.988
  H      150.309      25.100    -341.766
  H      148.084      26.732    -342.201
  H      149.316      28.413    -336.966
  H      148.837      27.356    -344.425
  H      148.854      26.915    -337.690
  H      149.288      24.339    -344.886
  H      151.058      25.087    -346.427
  H      149.470      25.727    -346.913
  P      146.136      27.074    -344.973
  C      147.109      28.166    -347.105
  O      146.761      28.338    -345.740
  O      145.513      27.388    -343.657
  O      145.115      26.488    -346.050
  H      144.440      25.878    -345.664
  H      147.511      29.081    -347.489
  H      146.237      27.897    -347.664
  H      147.841      27.391    -347.191

 6  7  8  9  10  11  12  13  14  15  26  29  33  34 0
 6-311+G(2d,p)
 ****
 36  38  39  40  41 0
 6-311+G(2d,p)
 ****
 1  2  3  4  5  16  17  18  19  20  21  22  23  24  25 0
 3-21G
 ****
 27  28  30  31  32  35  37  42  43  44  45  46  47 0
 3-21G
 ****
 48  49 0
 3-21G
 ****


