%nproc=1
%NoSave
%Mem=1900MB
#P OB98/GEN NMR

erre ene a

0 1
  C       68.916    -110.371      52.228
  O       69.799    -109.351      52.654
  H       69.224    -111.314      52.691
  H       68.966    -110.485      51.142
  H       67.890    -110.150      52.536
  P       69.512    -107.841      52.198
  C       68.946    -106.640      49.995
  O       69.322    -107.868      50.604
  C       69.496    -106.555      48.573
  O       70.944    -106.452      48.636
  C       69.148    -107.771      47.703
  O       68.891    -107.319      46.374
  C       70.423    -108.594      47.722
  O       70.556    -109.415      46.564
  C       71.496    -107.509      47.827
  N       76.124    -109.262      46.799
  C       75.160    -108.743      45.957
  N       75.458    -108.706      44.640
  N       74.000    -108.300      46.371
  C       73.841    -108.384      47.714
  C       74.718    -108.877      48.651
  C       75.993    -109.378      48.181
  O       76.881    -109.858      48.875
  N       74.181    -108.815      49.915
  C       72.982    -108.290      49.739
  N       72.723    -108.021      48.419
  O       70.498    -106.826      52.685
  O       68.036    -107.545      52.740
  H       71.506    -109.654      46.489
  H       68.069    -107.030      53.567
  H       76.998    -109.596      46.426
  H       72.263    -108.091      50.524
  H       71.767    -107.094      46.848
  H       70.433    -109.241      48.608
  H       76.336    -109.014      44.252
  H       68.289    -108.333      48.080
  H       74.774    -108.308      44.005
  H       69.133    -105.628      48.114
  H       69.353    -105.819      50.599
  H       67.853    -106.561      49.982
  P       67.389    -106.925      45.970
  C       65.358    -108.045      44.844
  O       66.706    -108.201      45.274
  O       67.235    -105.637      45.231
  O       66.643    -106.869      47.391
  H       65.917    -106.216      47.341
  H       65.018    -108.957      44.400
  H       65.302    -107.255      44.124
  H       64.741    -107.806      45.685

 6  7  8  9  10  11  12  13  14  15  26  29  33  34 0
 6-311+G(2d,p)
 ****
 36  38  39  40  41 0
 6-311+G(2d,p)
 ****
 1  2  3  4  5  16  17  18  19  20  21  22  23  24  25 0
 3-21G
 ****
 27  28  30  31  32  35  37  42  43  44  45  46  47 0
 3-21G
 ****
 48  49 0
 3-21G
 ****


