%nproc=1
%NoSave
%Mem=1900MB
#P OB98/GEN NMR

erre ene a

0 1
  C       71.748     100.894      22.513
  O       71.686     100.154      23.716
  H       70.811     101.444      22.391
  H       71.878     100.230      21.654
  H       72.572     101.612      22.555
  P       72.871      99.132      24.056
  C       73.553      96.763      23.302
  O       72.605      97.817      23.172
  C       74.152      96.405      21.942
  O       73.087      95.921      21.079
  C       74.835      97.583      21.239
  O       75.993      97.094      20.558
  C       73.783      98.037      20.246
  O       74.358      98.737      19.160
  C       73.093      96.719      19.880
  N       71.743      96.953      19.367
  C       71.650      97.565      18.112
  O       72.667      97.867      17.489
  N       70.408      97.884      17.621
  C       69.353      97.663      18.343
  N       68.158      98.038      17.812
  C       69.408      97.042      19.682
  C       70.621      96.715      20.129
  O       73.118      98.869      25.505
  O       74.152      99.788      23.354
  H       74.817      99.535      19.495
  H       74.609     100.380      23.980
  H       68.501      96.886      20.246
  H       70.760      96.267      21.108
  H       73.671      96.177      19.117
  H       73.071      98.708      20.745
  H       75.119      98.386      21.930
  H       74.853      95.570      22.077
  H       68.173      98.480      16.899
  H       73.032      95.892      23.716
  H       67.276      97.957      18.295
  H       74.344      97.061      23.995
  P       77.444      97.717      20.854
  C       78.819      99.758      20.148
  O       77.512      99.202      20.243
  O       78.592      96.837      20.478
  O       77.432      97.973      22.440
  H       78.341      97.888      22.785
  H       78.759     100.742      19.732
  H       79.424      99.141      19.517
  H       79.257      99.809      21.123

 6  7  8  9  10  11  12  13  14  15  16  26  30  31  32  33  35 0
 6-311+G(2d,p)
 ****
 37  38 0
 6-311+G(2d,p)
 ****
 1  2  3  4  5  17  18  19  20  21  22  23  24  25 0
 3-21G
 ****
 27  28  29  34  36  39  40  41  42  43  44  45  46 0
 3-21G
 ****


