%nproc=1
%NoSave
%Mem=1900MB
#P OB98/GEN NMR

erre ene a

0 1
  C     -475.955    1090.133    -631.462
  O     -475.352    1089.837    -632.722
  P     -473.944    1090.504    -633.110
  C     -472.383    1088.435    -633.103
  O     -473.043    1089.409    -633.880
  C     -472.500    1087.053    -633.760
  O     -473.798    1086.443    -633.479
  C     -472.426    1087.112    -635.280
  O     -471.169    1087.452    -635.844
  C     -473.057    1085.804    -635.695
  O     -472.107    1084.731    -635.633
  C     -474.139    1085.621    -634.615
  N     -475.516    1085.923    -635.083
  C     -476.390    1084.824    -635.093
  O     -476.028    1083.684    -634.770
  N     -477.652    1085.076    -635.531
  C     -478.107    1086.323    -635.975
  O     -479.263    1086.484    -636.386
  C     -477.144    1087.405    -635.945
  C     -475.881    1087.165    -635.500
  O     -473.269    1091.225    -631.992
  O     -474.362    1091.521    -634.281
  H     -471.671    1084.798    -634.746
  H     -473.859    1092.351    -634.142
  H     -478.298    1084.314    -635.552
  H     -477.466    1088.370    -636.284
  H     -475.166    1087.985    -635.459
  H     -474.126    1084.578    -634.214
  H     -473.452    1085.839    -636.714
  H     -473.112    1087.908    -635.635
  H     -471.751    1086.401    -633.336
  H     -472.779    1088.411    -632.086
  H     -471.329    1088.729    -632.992
  P     -470.972    1087.735    -637.414
  C     -470.036    1090.164    -637.240
  O     -469.768    1088.787    -637.566
  O     -472.210    1087.954    -638.237
  O     -470.240    1086.374    -637.879
  H     -470.537    1086.204    -638.819
  H     -469.139    1090.747    -637.423
  H     -470.294    1090.237    -636.161
  H     -470.832    1090.549    -637.851
  H     -476.881    1089.604    -631.377
  H     -476.138    1091.185    -631.392
  H     -475.298    1089.832    -630.673

 3  4  5  6  7  8  9  10  11  12  13  23  28  29  30  31  32 0
 6-311+G(2d,p)
 ****
 33  34 0
 6-311+G(2d,p)
 ****
 1  2  14  15  16  17  18  19  20  21  22  24  25  26  27 0
 3-21G
 ****
 35  36  37  38  39  40  41  42  43  44  45 0
 3-21G
 ****


