%nproc=1
%NoSave
%Mem=1900MB
#P OB98/GEN NMR

erre ene a

0 1
  C       92.046      -1.365      16.765
  O       92.622      -2.646      16.524
  P       92.964      -3.724      17.647
  C       90.468      -4.536      17.793
  O       91.841      -4.861      17.623
  C       89.610      -5.806      17.903
  O       89.282      -6.266      16.557
  C       90.345      -6.953      18.606
  O       89.529      -7.677      19.520
  C       90.946      -7.730      17.447
  O       91.300      -9.063      17.783
  C       89.877      -7.570      16.370
  N       91.966     -10.655      12.881
  C       91.722     -10.886      14.219
  N       92.094     -12.089      14.703
  N       91.176     -10.010      15.019
  C       90.923      -8.822      14.428
  C       91.134      -8.466      13.116
  C       91.692      -9.461      12.226
  O       91.911      -9.315      11.027
  N       90.742      -7.173      12.879
  C       90.316      -6.742      14.049
  N       90.397      -7.711      15.022
  O       93.339      -3.178      18.983
  O       94.256      -4.490      17.059
  H       90.496      -9.514      18.101
  H       94.793      -4.755      17.833
  H       92.368     -11.374      12.305
  H       89.927      -5.749      14.245
  H       89.084      -8.315      16.462
  H       91.869      -7.219      17.149
  H       92.629     -12.761      14.176
  H       91.154      -6.567      19.236
  H       92.118     -12.170      15.721
  H       88.674      -5.556      18.413
  H       90.180      -3.969      16.902
  H       90.328      -3.888      18.659
  P       89.516      -7.609      21.115
  C       88.023      -5.650      21.827
  O       88.096      -7.043      21.589
  O       90.518      -6.420      21.488
  O       89.935      -8.870      21.796
  H       91.262      -6.769      22.018
  H       87.110      -5.437      22.388
  H       87.987      -5.116      20.874
  H       88.885      -5.311      22.409
  H       91.924      -0.848      15.836
  H       92.690      -0.799      17.406
  H       91.092      -1.485      17.234

 3  4  5  6  7  8  9  10  11  12  23  26  30  31 0
 6-311+G(2d,p)
 ****
 33  35  36  37  38 0
 6-311+G(2d,p)
 ****
 1  2  13  14  15  16  17  18  19  20  21  22  24  25 0
 3-21G
 ****
 27  28  29  32  34  39  40  41  42  43  44  45  46  47  48  49 0
 3-21G
 ****


