%nproc=1
%NoSave
%Mem=1900MB
#P OB98/GEN NMR

erre ene a

0 1
  C     -114.947    -420.362    -392.346
  O     -114.528    -419.691    -393.513
  H     -115.669    -419.726    -391.823
  H     -114.097    -420.536    -391.679
  H     -115.429    -421.309    -392.594
  P     -113.426    -420.375    -394.464
  C     -111.867    -418.372    -394.059
  O     -112.011    -419.784    -393.964
  C     -110.444    -417.992    -394.463
  O     -109.525    -418.335    -393.390
  C     -109.944    -418.700    -395.733
  O     -109.322    -417.747    -396.607
  C     -108.892    -419.670    -395.217
  O     -107.927    -420.028    -396.203
  C     -108.353    -418.891    -394.010
  N     -107.594    -419.744    -393.107
  C     -106.209    -419.799    -393.324
  O     -105.700    -419.144    -394.242
  N     -105.446    -420.633    -392.548
  C     -106.024    -421.384    -391.656
  N     -105.210    -422.203    -390.937
  C     -107.487    -421.382    -391.410
  C     -108.196    -420.535    -392.158
  O     -113.686    -420.233    -395.929
  O     -113.360    -421.900    -393.981
  H     -108.322    -420.697    -396.804
  H     -112.994    -422.448    -394.713
  H     -107.908    -422.029    -390.661
  H     -109.274    -420.467    -392.049
  H     -107.709    -418.060    -394.332
  H     -109.388    -420.591    -394.875
  H     -110.734    -419.221    -396.274
  H     -110.387    -416.900    -394.574
  H     -104.220    -422.190    -391.144
  H     -112.127    -417.927    -393.097
  H     -105.550    -422.855    -390.238
  H     -112.560    -418.008    -394.827
  P     -110.209    -417.258    -397.858
  C     -109.636    -419.286    -399.388
  O     -110.649    -418.564    -398.693
  O     -109.141    -416.538    -398.806
  O     -111.326    -416.342    -397.479
  H     -109.297    -415.574    -398.811
  H     -110.076    -420.121    -399.892
  H     -108.905    -419.636    -398.690
  H     -109.167    -418.643    -400.104

 6  7  8  9  10  11  12  13  14  15  16  26  30  31  32  33  35 0
 6-311+G(2d,p)
 ****
 37  38 0
 6-311+G(2d,p)
 ****
 1  2  3  4  5  17  18  19  20  21  22  23  24  25 0
 3-21G
 ****
 27  28  29  34  36  39  40  41  42  43  44  45  46 0
 3-21G
 ****


