%nproc=1
%NoSave
%Mem=1900MB
#P OB98/GEN NMR

erre ene a

0 1
  C      607.554    -899.507     545.663
  O      607.038    -899.757     546.958
  P      607.774    -899.127     548.236
  C      606.668    -896.807     548.093
  O      607.892    -897.537     548.020
  C      606.652    -895.947     549.369
  O      607.757    -895.017     549.361
  C      605.407    -895.097     549.502
  O      604.309    -895.857     549.928
  C      605.884    -894.037     550.512
  O      605.800    -894.557     551.862
  C      607.352    -893.847     550.097
  N      607.625    -888.757     550.243
  C      607.259    -889.657     551.189
  N      607.168    -890.987     551.052
  C      607.516    -891.387     549.795
  C      607.887    -890.567     548.743
  C      607.975    -889.187     549.003
  N      608.408    -888.257     548.086
  N      608.110    -891.307     547.600
  C      607.882    -892.557     547.979
  N      607.563    -892.647     549.293
  O      609.057    -899.797     548.638
  O      606.695    -899.237     549.410
  H      604.829    -894.687     552.044
  H      607.039    -899.797     550.136
  H      606.999    -889.267     552.145
  H      607.915    -893.447     547.304
  H      608.009    -893.787     550.972
  H      605.290    -893.137     550.476
  H      605.178    -894.587     548.540
  H      606.776    -896.607     550.230
  H      605.837    -897.527     548.119
  H      608.565    -887.317     548.444
  H      608.933    -888.587     547.282
  H      606.554    -896.177     547.198
  P      602.951    -895.897     549.071
  C      603.485    -898.167     547.994
  O      603.252    -896.807     547.757
  O      602.333    -894.567     548.799
  O      601.982    -896.827     549.915
  H      601.061    -896.527     549.795
  H      604.498    -898.287     548.376
  H      603.377    -898.707     547.047
  H      602.764    -898.557     548.712
  H      606.944    -900.000     544.935
  H      608.555    -899.879     545.600
  H      607.552    -898.454     545.476

 3  4  5  6  7  8  9  10  11  12  22  25  29  30  31  32 0
 6-311+G(2d,p)
 ****
 33  36  37 0
 6-311+G(2d,p)
 ****
 1  2  13  14  15  16  17  18  19  20  21  23  24  26 0
 3-21G
 ****
 27  28  34  35  38  39  40  41  42  43  44  45  46  47  48 0
 3-21G
 ****


