%nproc=1
%NoSave
%Mem=1900MB
#P OB98/GEN NMR

erre ene a

0 1
  C     -171.426     -90.926    -271.736
  O     -172.137     -89.873    -271.080
  P     -171.599     -88.380    -270.898
  C     -172.321     -87.554    -273.289
  O     -172.418     -87.417    -271.880
  C     -173.520     -86.895    -273.995
  O     -174.746     -87.296    -273.305
  C     -173.459     -85.359    -273.950
  O     -173.836     -84.737    -275.178
  C     -174.283     -85.020    -272.719
  O     -174.741     -83.680    -272.700
  C     -175.359     -86.104    -272.747
  N     -177.821     -84.265    -268.666
  C     -177.282     -83.585    -269.741
  N     -177.401     -82.240    -269.734
  N     -176.670     -84.172    -270.735
  C     -176.563     -85.515    -270.587
  C     -177.034     -86.295    -269.556
  C     -177.749     -85.638    -268.489
  O     -178.270     -86.197    -267.517
  N     -176.731     -87.622    -269.757
  C     -176.055     -87.639    -270.894
  N     -175.932     -86.381    -271.437
  O     -170.112     -88.215    -270.885
  O     -172.147     -87.955    -269.440
  H     -175.224     -83.532    -271.860
  H     -171.480     -87.338    -269.062
  H     -178.301     -83.755    -267.937
  H     -175.650     -88.530    -271.368
  H     -176.199     -85.832    -273.390
  H     -173.632     -85.147    -271.844
  H     -177.746     -81.714    -268.946
  H     -172.425     -85.018    -273.801
  H     -176.818     -81.734    -270.399
  H     -173.571     -87.268    -275.027
  H     -172.316     -88.631    -273.489
  H     -171.378     -87.149    -273.660
  P     -173.390     -83.312    -275.763
  C     -171.025     -84.005    -276.487
  O     -172.295     -83.555    -276.913
  O     -172.529     -82.639    -274.593
  O     -174.524     -82.420    -276.149
  H     -172.962     -81.814    -274.295
  H     -170.314     -83.872    -277.310
  H     -171.071     -85.070    -276.232
  H     -170.679     -83.430    -275.622
  H     -172.014     -91.820    -271.716
  H     -170.498     -91.098    -271.231
  H     -171.234     -90.648    -272.751

 3  4  5  6  7  8  9  10  11  12  23  26  30  31 0
 6-311+G(2d,p)
 ****
 33  35  36  37  38 0
 6-311+G(2d,p)
 ****
 1  2  13  14  15  16  17  18  19  20  21  22  24  25 0
 3-21G
 ****
 27  28  29  32  34  39  40  41  42  43  44  45  46  47  48  49 0
 3-21G
 ****


