%nproc=1
%NoSave
%Mem=1900MB
#P OB98/GEN NMR

erre ene a

0 1
  C     -744.294     277.377    -572.847
  O     -745.005     276.442    -572.048
  H     -744.528     277.194    -573.895
  H     -743.218     277.248    -572.698
  H     -744.586     278.397    -572.590
  P     -744.932     276.642    -570.465
  C     -747.395     277.255    -569.779
  O     -746.375     276.264    -569.873
  C     -748.738     276.603    -569.486
  O     -749.289     275.981    -570.670
  C     -748.668     275.460    -568.480
  O     -748.420     275.911    -567.167
  C     -750.031     274.829    -568.675
  O     -751.057     275.577    -567.992
  C     -750.206     274.947    -570.210
  N     -749.979     273.680    -570.903
  C     -751.060     273.204    -571.650
  O     -752.120     273.835    -571.701
  N     -750.924     271.989    -572.292
  C     -749.808     271.340    -572.216
  N     -749.743     270.145    -572.862
  C     -748.636     271.834    -571.458
  C     -748.787     273.001    -570.831
  O     -744.894     278.236    -570.308
  O     -743.817     275.933    -569.773
  H     -750.759     275.662    -567.061
  H     -745.614     278.689    -570.777
  H     -747.719     271.258    -571.439
  H     -747.984     273.424    -570.255
  H     -751.219     275.299    -570.458
  H     -750.074     273.812    -568.293
  H     -747.913     274.730    -568.800
  H     -749.431     277.380    -569.151
  H     -750.577     269.838    -573.358
  H     -747.445     277.852    -570.707
  H     -748.940     269.539    -572.846
  H     -747.120     277.945    -568.971
  P     -747.307     275.194    -566.252
  C     -745.790     277.218    -565.771
  O     -746.753     276.318    -565.236
  O     -746.246     274.470    -567.013
  O     -748.178     274.257    -565.283
  H     -748.818     274.739    -564.730
  H     -745.495     277.915    -565.015
  H     -746.217     277.747    -566.597
  H     -744.934     276.668    -566.103

 6  7  8  9  10  11  12  13  14  15  16  26  30  31  32  33  35 0
 6-311+G(2d,p)
 ****
 37  38 0
 6-311+G(2d,p)
 ****
 1  2  3  4  5  17  18  19  20  21  22  23  24  25 0
 3-21G
 ****
 27  28  29  34  36  39  40  41  42  43  44  45  46 0
 3-21G
 ****


