%nproc=1
%NoSave
%Mem=1900MB
#P OB98/GEN NMR

erre ene a

0 1
  C     -531.612    -524.847     -25.656
  O     -531.280    -524.196     -24.438
  H     -532.391    -524.263     -26.163
  H     -532.008    -525.840     -25.444
  H     -530.749    -524.918     -26.315
  P     -529.910    -524.634     -23.735
  C     -528.436    -522.518     -24.024
  O     -529.247    -523.287     -23.156
  C     -527.931    -521.267     -23.310
  O     -528.988    -520.257     -23.327
  C     -527.533    -521.497     -21.842
  O     -526.391    -520.669     -21.533
  C     -528.735    -520.951     -21.076
  O     -528.402    -520.572     -19.742
  C     -529.122    -519.779     -21.985
  N     -531.761    -516.630     -19.079
  C     -530.401    -516.731     -19.291
  N     -529.595    -515.912     -18.571
  N     -529.855    -517.580     -20.134
  C     -530.765    -518.329     -20.797
  C     -532.134    -518.326     -20.685
  C     -532.724    -517.398     -19.733
  O     -533.917    -517.276     -19.490
  N     -532.699    -519.282     -21.488
  C     -531.675    -519.868     -22.076
  N     -530.482    -519.333     -21.690
  O     -528.971    -525.010     -24.980
  O     -530.025    -525.762     -22.764
  H     -529.070    -519.928     -19.429
  H     -529.020    -525.972     -25.149
  H     -532.124    -515.971     -18.417
  H     -531.735    -520.693     -22.771
  H     -528.471    -518.911     -21.845
  H     -529.522    -521.703     -21.037
  H     -529.943    -515.219     -17.929
  H     -527.307    -522.540     -21.598
  H     -528.602    -515.942     -18.751
  H     -527.087    -520.853     -23.875
  H     -529.028    -522.218     -24.896
  H     -527.587    -523.126     -24.369
  P     -525.479    -521.095     -20.280
  C     -523.219    -521.673     -21.414
  O     -523.951    -520.750     -20.630
  O     -525.520    -522.690     -20.308
  O     -525.974    -520.562     -18.975
  H     -525.500    -523.042     -19.408
  H     -522.225    -521.306     -21.561
  H     -523.699    -521.794     -22.363
  H     -523.180    -522.617     -20.911

 6  7  8  9  10  11  12  13  14  15  26  29  33  34 0
 6-311+G(2d,p)
 ****
 36  38  39  40  41 0
 6-311+G(2d,p)
 ****
 1  2  3  4  5  16  17  18  19  20  21  22  23  24  25 0
 3-21G
 ****
 27  28  30  31  32  35  37  42  43  44  45  46  47 0
 3-21G
 ****
 48  49 0
 3-21G
 ****


