%nproc=1
%NoSave
%Mem=1900MB
#P OB98/GEN NMR

erre ene a

0 1
  C     -897.637    -381.173    -551.047
  O     -897.455    -381.766    -552.345
  P     -896.030    -382.247    -552.888
  C     -896.174    -381.871    -555.437
  O     -896.189    -382.828    -554.378
  C     -896.518    -382.513    -556.781
  O     -895.523    -383.508    -557.152
  C     -897.849    -383.240    -556.833
  O     -898.934    -382.328    -556.928
  C     -897.662    -384.130    -558.057
  O     -897.926    -383.403    -559.272
  C     -896.167    -384.499    -557.962
  N     -895.965    -385.842    -557.439
  C     -895.888    -386.884    -558.372
  O     -896.056    -386.642    -559.572
  N     -895.662    -388.166    -557.927
  C     -895.583    -388.394    -556.647
  N     -895.341    -389.678    -556.268
  C     -895.747    -387.351    -555.626
  C     -895.930    -386.113    -556.086
  O     -895.301    -383.164    -551.949
  O     -895.187    -380.892    -553.107
  H     -898.017    -384.062    -559.977
  H     -894.242    -381.081    -552.952
  H     -895.695    -387.592    -554.571
  H     -896.041    -385.282    -555.402
  H     -895.687    -384.432    -558.948
  H     -898.327    -385.001    -558.060
  H     -897.956    -383.875    -555.933
  H     -896.480    -381.727    -557.567
  H     -895.231    -390.380    -556.996
  H     -895.164    -381.435    -555.488
  H     -895.267    -389.970    -555.301
  H     -896.890    -381.071    -555.215
  P     -900.431    -382.867    -556.741
  C     -901.846    -381.655    -558.514
  O     -901.420    -381.668    -557.161
  O     -900.744    -383.503    -555.428
  O     -900.615    -383.910    -557.940
  H     -901.229    -384.625    -557.666
  H     -902.777    -381.092    -558.585
  H     -902.018    -382.674    -558.893
  H     -901.083    -381.163    -559.140
  H     -898.670    -380.934    -550.906
  H     -897.051    -380.280    -550.977
  H     -897.325    -381.864    -550.292

 3  4  5  6  7  8  9  10  11  12  13  23  27  28  29  30  32 0
 6-311+G(2d,p)
 ****
 34  35 0
 6-311+G(2d,p)
 ****
 1  2  14  15  16  17  18  19  20  21  22  24  25  26 0
 3-21G
 ****
 31  33  36  37  38  39  40  41  42  43  44  45  46 0
 3-21G
 ****


