%nproc=1
%NoSave
%Mem=1900MB
#P OB98/GEN NMR

erre ene a

0 1
  C     -299.197     -58.578      59.943
  O     -297.826     -58.293      59.664
  P     -297.110     -59.204      58.545
  C     -295.669     -57.558      57.135
  O     -296.883     -58.286      57.251
  C     -295.919     -56.185      56.515
  O     -296.686     -55.350      57.395
  C     -294.652     -55.398      56.222
  O     -294.028     -55.822      55.018
  C     -295.211     -53.989      56.062
  O     -295.727     -53.811      54.732
  C     -296.354     -53.971      57.092
  N     -296.575     -49.617      59.678
  C     -297.050     -49.924      58.416
  N     -297.700     -48.933      57.765
  N     -296.905     -51.090      57.851
  C     -296.258     -51.988      58.632
  C     -295.744     -51.808      59.894
  C     -295.887     -50.501      60.498
  O     -295.457     -50.170      61.596
  N     -295.169     -52.960      60.369
  C     -295.364     -53.843      59.412
  N     -296.007     -53.301      58.326
  O     -298.284     -60.196      58.093
  O     -295.915     -59.942      59.041
  H     -296.269     -52.997      54.742
  H     -297.905     -61.032      57.762
  H     -296.709     -48.701      60.064
  H     -295.063     -54.881      59.455
  H     -297.259     -53.499      56.686
  H     -294.452     -53.208      56.222
  H     -297.910     -48.035      58.168
  H     -293.960     -55.427      57.074
  H     -298.087     -49.152      56.852
  H     -296.487     -56.332      55.584
  H     -294.959     -58.114      56.522
  H     -295.219     -57.461      58.132
  P     -292.480     -56.238      55.107
  C     -292.376     -58.819      54.818
  O     -292.472     -57.725      55.709
  O     -291.924     -55.334      56.299
  O     -291.715     -56.040      53.844
  H     -290.976     -55.150      56.171
  H     -291.635     -58.632      54.039
  H     -293.354     -59.004      54.361
  H     -292.076     -59.707      55.378
  H     -299.554     -57.909      60.698
  H     -299.289     -59.587      60.288
  H     -299.776     -58.452      59.052

 3  4  5  6  7  8  9  10  11  12  23  26  30  31  33  0
 6-311+G(2d,p)
 ****
 35  36  37  38 0
 6-311+G(2d,p)
 ****
 1  2  13  14  15  16  17  18  19  20  21  22  24  25  27  28  29 0
 3-21G
 ****
 32  34  39  40  41  42  43  44  45  46  47  48  49 0
 3-21G
 ****


