%nproc=1
%NoSave
%Mem=1900MB
#P OB98/GEN NMR

erre ene a

0 1
  C     -896.200     909.332     397.293
  O     -896.490     908.844     395.985
  P     -895.700     907.558     395.460
  C     -895.110     908.608     393.148
  O     -895.770     907.523     393.840
  C     -894.580     908.114     391.797
  O     -893.550     907.110     392.011
  C     -895.630     907.401     390.949
  O     -896.660     908.207     390.411
  C     -894.790     906.626     389.980
  O     -894.350     907.416     388.883
  C     -893.560     906.226     390.859
  N     -893.600     904.812     391.302
  C     -893.340     903.879     390.315
  O     -893.080     904.151     389.150
  N     -893.370     902.557     390.738
  C     -893.690     902.125     391.974
  O     -893.740     900.942     392.300
  C     -893.990     903.176     392.964
  C     -893.970     904.456     392.580
  O     -896.070     906.255     396.118
  O     -894.190     907.885     395.733
  H     -895.160     907.690     388.399
  H     -893.730     907.094     396.067
  H     -893.150     901.854     390.043
  H     -894.260     902.852     393.969
  H     -894.170     905.243     393.290
  H     -892.620     906.367     390.316
  H     -895.340     905.778     389.562
  H     -896.140     906.659     391.603
  H     -894.130     908.963     391.269
  H     -894.300     909.000     393.772
  H     -895.850     909.431     393.010
  P     -898.010     908.566     391.208
  C     -899.120     906.245     390.935
  O     -899.180     907.639     390.649
  O     -898.330     910.018     391.411
  O     -897.700     907.898     392.646
  H     -898.150     908.440     393.335
  H     -900.000     905.738     390.464
  H     -899.180     906.076     392.031
  H     -898.210     905.800     390.521
  H     -896.806     910.190     397.496
  H     -895.167     909.603     397.352
  H     -896.410     908.569     398.013

 3  4  5  6  7  8  9  10  11  12  13  23  28  29  30  31  32 0
 6-311+G(2d,p)
 ****
 33  34 0
 6-311+G(2d,p)
 ****
 1  2  14  15  16  17  18  19  20  21  22  24  25  26  27 0
 3-21G
 ****
 35  36  37  38  39  40  41  42  43  44  45 0
 3-21G
 ****


