%nproc=1
%NoSave
%Mem=1900MB
#P OB98/GEN NMR

erre ene a

0 1
  C     -101.017    -321.168    -606.041
  O     -100.734    -322.548    -605.899
  H     -100.263    -320.705    -606.682
  H     -101.996    -321.055    -606.514
  H     -101.039    -320.672    -605.068
  P      -99.496    -322.951    -604.962
  C      -99.301    -324.365    -602.792
  O     -100.127    -323.549    -603.609
  C      -99.988    -325.694    -602.492
  O     -101.230    -325.424    -601.784
  C     -100.334    -326.525    -603.741
  O     -100.108    -327.910    -603.450
  C     -101.831    -326.294    -603.911
  O     -102.476    -327.351    -604.608
  C     -102.277    -326.149    -602.460
  N     -107.317    -326.797    -602.629
  C     -106.305    -327.676    -602.465
  N     -104.978    -327.407    -602.375
  C     -104.759    -326.081    -602.402
  C     -105.689    -325.067    -602.559
  C     -107.037    -325.474    -602.696
  N     -108.066    -324.597    -602.927
  N     -105.060    -323.837    -602.596
  C     -103.775    -324.103    -602.490
  N     -103.540    -325.446    -602.378
  O      -98.927    -321.518    -604.511
  O      -98.445    -323.792    -605.607
  H     -103.436    -327.174    -604.638
  H      -98.284    -321.202    -605.171
  H     -106.584    -328.721    -602.409
  H     -102.980    -323.374    -602.528
  H     -102.401    -327.118    -601.962
  H     -101.994    -325.359    -604.464
  H      -99.766    -326.238    -604.636
  H      -99.348    -326.275    -601.816
  H      -99.105    -323.843    -601.846
  H     -108.976    -324.986    -603.121
  H     -107.857    -323.621    -603.091
  H      -98.344    -324.534    -603.301
  P      -98.754    -328.569    -604.001
  C      -96.647    -327.176    -604.642
  O      -97.523    -327.610    -603.608
  O      -98.876    -328.383    -605.585
  O      -98.586    -330.006    -603.626
  H      -98.444    -329.123    -606.050
  H      -95.886    -326.550    -604.225
  H      -97.202    -326.625    -605.372
  H      -96.194    -328.027    -605.107

 6  7  8  9  10  11  12  13  14  15  25  28  32  33  34  35 0
 6-311+G(2d,p)
 ****
 36  39  40 0
 6-311+G(2d,p)
 ****
 1  2  3  4  5  16  17  18  19  20  21  22  23  24 0
 3-21G
 ****
 26  27  29  30  31  37  38  41  42  43  44  45  46  47 0
 3-21G
 ****
 48 0
 3-21G
 ****


