%nproc=1
%NoSave
%Mem=1900MB
#P OB98/GEN NMR

erre ene a

0 1
  C     -219.476    -291.501       5.391
  O     -219.958    -292.822       5.238
  H     -218.460    -291.542       5.791
  H     -220.109    -290.960       6.097
  H     -219.456    -290.980       4.428
  P     -221.300    -293.015       4.383
  C     -223.759    -293.645       4.904
  O     -222.491    -293.286       5.430
  C     -224.792    -293.738       6.030
  O     -224.404    -294.810       6.931
  C     -224.923    -292.454       6.861
  O     -226.301    -292.259       7.195
  C     -224.130    -292.763       8.117
  O     -224.557    -291.992       9.239
  C     -224.370    -294.262       8.264
  N     -222.347    -294.522      12.874
  C     -223.468    -293.851      12.427
  N     -224.153    -293.136      13.346
  N     -223.884    -293.880      11.190
  C     -223.124    -294.664      10.386
  C     -221.986    -295.371      10.707
  C     -221.522    -295.309      12.076
  O     -220.521    -295.861      12.525
  N     -221.480    -296.020       9.605
  C     -222.307    -295.703       8.628
  N     -223.323    -294.889       9.053
  O     -221.083    -294.440       3.684
  O     -221.577    -291.949       3.376
  H     -224.002    -292.254      10.004
  H     -221.033    -294.327       2.717
  H     -222.061    -294.456      13.837
  H     -222.214    -296.026       7.598
  H     -225.324    -294.486       8.754
  H     -223.068    -292.550       7.945
  H     -223.916    -293.109      14.326
  H     -224.547    -291.571       6.341
  H     -225.000    -292.665      13.052
  H     -225.757    -294.026       5.595
  H     -223.676    -294.616       4.405
  H     -224.075    -292.892       4.172
  P     -226.891    -290.775       7.017
  C     -227.121    -288.658       8.492
  O     -226.904    -290.061       8.459
  O     -228.442    -291.032       6.709
  O     -226.240    -289.994       5.923
  H     -228.629    -290.842       5.772
  H     -227.105    -288.318       9.507
  H     -228.072    -288.434       8.056
  H     -226.350    -288.165       7.938

 6  7  8  9  10  11  12  13  14  15  26  29  33  34 0
 6-311+G(2d,p)
 ****
 36  38  39  40  41 0
 6-311+G(2d,p)
 ****
 1  2  3  4  5  16  17  18  19  20  21  22  23  24  25 0
 3-21G
 ****
 27  28  30  31  32  35  37  42  43  44  45  46  47 0
 3-21G
 ****
 48  49 0
 3-21G
 ****


