%nproc=1
%NoSave
%Mem=1900MB
#P OB98/GEN NMR

erre ene a

0 1
  C     1316.796     -20.654    -264.065
  O     1316.271     -21.412    -265.138
  H     1317.359     -21.325    -263.405
  H     1315.981     -20.197    -263.492
  H     1317.472     -19.884    -264.446
  P     1315.377     -20.613    -266.207
  C     1312.989     -19.624    -266.091
  O     1313.928     -20.517    -265.520
  C     1311.722     -19.563    -265.245
  O     1312.040     -19.254    -263.876
  C     1310.708     -18.517    -265.691
  O     1309.909     -19.020    -266.750
  C     1309.895     -18.331    -264.420
  O     1308.932     -19.394    -264.312
  C     1310.961     -18.482    -263.317
  N     1310.224     -14.608    -260.026
  C     1309.411     -15.604    -260.423
  N     1309.645     -16.571    -261.341
  C     1310.881     -16.438    -261.862
  C     1311.821     -15.467    -261.554
  C     1311.456     -14.517    -260.586
  N     1312.288     -13.497    -260.181
  N     1312.975     -15.633    -262.299
  C     1312.756     -16.732    -262.996
  N     1311.491     -17.239    -262.793
  O     1315.416     -21.145    -267.602
  O     1315.941     -19.130    -266.028
  H     1308.162     -19.135    -264.869
  H     1316.094     -18.928    -265.091
  H     1308.438     -15.649    -259.937
  H     1313.482     -17.215    -263.634
  H     1310.576     -19.041    -262.449
  H     1309.339     -17.391    -264.409
  H     1311.193     -17.562    -265.946
  H     1311.265     -20.568    -265.254
  H     1312.739     -19.928    -267.114
  H     1311.878     -12.759    -259.628
  H     1313.151     -13.351    -260.697
  H     1313.463     -18.633    -266.137
  P     1308.854     -18.077    -267.511
  C     1307.705     -16.020    -266.479
  O     1307.979     -17.412    -266.347
  O     1308.080     -18.756    -268.590
  O     1309.739     -16.848    -268.052
  H     1309.240     -16.367    -268.739
  H     1307.117     -15.692    -265.647
  H     1307.166     -15.847    -267.387
  H     1308.626     -15.476    -266.502

 6  7  8  9  10  11  12  13  14  15  25  28  32  33  34  35 0
 6-311+G(2d,p)
 ****
 36  39  40 0
 6-311+G(2d,p)
 ****
 1  2  3  4  5  16  17  18  19  20  21  22  23  24 0
 3-21G
 ****
 26  27  29  30  31  37  38  41  42  43  44  45  46  47 0
 3-21G
 ****
 48 0
 3-21G
 ****


