%nproc=1
%NoSave
%Mem=1900MB
#P OB98/GEN NMR

erre ene a

0 1
  C      585.474      97.241    -244.918
  O      585.818      98.616    -244.699
  P      586.061      99.101    -243.191
  C      588.619      98.669    -242.978
  O      587.302      98.281    -242.600
  C      589.608      98.353    -241.851
  O      589.764      96.931    -241.656
  C      591.006      98.902    -242.103
  O      591.110     100.273    -241.739
  C      591.828      98.049    -241.145
  O      591.711      98.571    -239.804
  C      591.135      96.685    -241.249
  N      595.336      94.052    -242.265
  C      595.023      94.845    -241.177
  N      595.968      94.945    -240.212
  N      593.888      95.484    -241.044
  C      593.036      95.275    -242.076
  C      593.234      94.513    -243.209
  C      594.491      93.828    -243.348
  O      594.836      93.123    -244.293
  N      592.140      94.558    -244.029
  C      591.272      95.323    -243.393
  N      591.778      95.797    -242.208
  O      584.813      98.465    -242.407
  O      586.117     100.584    -243.021
  H      592.003      99.502    -239.842
  H      584.598      99.010    -241.632
  H      596.225      93.589    -242.320
  H      590.277      95.559    -243.743
  H      591.102      96.155    -240.289
  H      592.895      98.050    -241.395
  H      596.840      94.444    -240.227
  H      591.325      98.719    -243.135
  H      595.744      95.492    -239.389
  H      589.214      98.787    -240.917
  H      588.646      99.735    -243.211
  H      588.887      98.147    -243.902
  P      591.815     101.271    -242.779
  C      589.569     102.058    -243.824
  O      590.809     101.401    -244.017
  O      593.025     100.391    -243.352
  O      592.293     102.552    -242.189
  H      593.778     100.968    -243.586
  H      589.092     102.201    -244.794
  H      589.720     103.037    -243.359
  H      588.917     101.448    -243.194
  H      585.344      97.068    -245.966
  H      584.563      97.015    -244.404
  H      586.258      96.614    -244.548

 3  4  5  6  7  8  9  10  11  12  23  26  30  31 0
 6-311+G(2d,p)
 ****
 33  35  36  37  38 0
 6-311+G(2d,p)
 ****
 1  2  13  14  15  16  17  18  19  20  21  22  24  25 0
 3-21G
 ****
 27  28  29  32  34  39  40  41  42  43  44  45  46  47  48  49 0
 3-21G
 ****


