%nproc=1
%NoSave
%Mem=1900MB
#P OB98/GEN NMR

erre ene a

0 1
  C     -190.505    -157.779      -9.744
  O     -191.227    -156.860     -10.538
  H     -191.118    -158.658      -9.531
  H     -189.615    -158.097     -10.294
  H     -190.192    -157.308      -8.808
  P     -192.574    -156.257      -9.907
  C     -193.645    -153.891      -9.867
  O     -192.668    -154.747     -10.441
  C     -193.047    -152.505      -9.649
  O     -191.959    -152.574      -8.700
  C     -192.461    -151.869     -10.905
  O     -193.457    -151.274     -11.720
  C     -191.552    -150.821     -10.288
  O     -192.336    -149.699      -9.841
  C     -190.972    -151.579      -9.086
  N     -185.886    -151.039      -9.228
  C     -186.875    -150.176      -8.918
  N     -188.205    -150.395      -8.908
  C     -188.480    -151.659      -9.268
  C     -187.578    -152.649      -9.619
  C     -186.217    -152.300      -9.584
  N     -185.205    -153.174      -9.914
  N     -188.239    -153.813      -9.962
  C     -189.515    -153.537      -9.787
  N     -189.714    -152.244      -9.377
  O     -192.213    -156.072      -8.358
  O     -193.807    -157.070     -10.115
  H     -193.117    -150.068      -9.386
  H     -193.030    -156.025      -7.828
  H     -186.556    -149.174      -8.641
  H     -190.329    -154.233      -9.942
  H     -190.803    -150.928      -8.221
  H     -190.809    -150.433     -10.987
  H     -191.853    -152.585     -11.472
  H     -193.826    -151.864      -9.215
  H     -193.962    -154.303      -8.904
  H     -184.288    -152.775     -10.036
  H     -185.453    -154.063     -10.322
  H     -194.510    -153.833     -10.534
  P     -192.973    -150.568     -13.076
  C     -194.195    -149.653     -15.183
  O     -194.285    -150.411     -13.981
  O     -192.146    -151.721     -13.813
  O     -192.166    -149.326     -12.883
  H     -191.475    -151.340     -14.410
  H     -195.148    -149.642     -15.670
  H     -193.468    -150.097     -15.831
  H     -193.902    -148.650     -14.951

 6  7  8  9  10  11  12  13  14  15  25  28  32  33  34  35 0
 6-311+G(2d,p)
 ****
 36  39  40 0
 6-311+G(2d,p)
 ****
 1  2  3  4  5  16  17  18  19  20  21  22  23  24 0
 3-21G
 ****
 26  27  29  30  31  37  38  41  42  43  44  45  46  47 0
 3-21G
 ****
 48 0
 3-21G
 ****


