%nproc=1
%NoSave
%Mem=1900MB
#P OB98/GEN NMR

erre ene a

0 1
  C      253.991     802.505     139.748
  O      255.225     803.051     139.284
  P      256.308     803.511     140.387
  C      257.411     804.765     138.389
  O      257.025     804.805     139.762
  C      257.720     806.164     137.872
  O      256.526     806.957     137.822
  C      258.709     806.955     138.732
  O      260.053     806.602     138.457
  C      258.427     808.373     138.268
  O      259.075     808.619     137.003
  C      256.899     808.349     138.063
  N      254.402     812.377     139.974
  C      255.085     812.208     138.820
  N      255.739     811.100     138.395
  C      255.659     810.113     139.304
  C      255.021     810.152     140.535
  C      254.348     811.351     140.864
  N      253.627     811.517     142.026
  N      255.145     808.955     141.203
  C      255.842     808.194     140.373
  N      256.161     808.853     139.212
  O      257.427     802.381     140.284
  O      255.770     803.654     141.767
  H      258.787     807.907     136.405
  H      257.944     802.335     141.122
  H      255.129     813.062     138.166
  H      256.140     807.168     140.566
  H      256.578     808.920     137.187
  H      258.776     809.130     138.965
  H      258.455     806.853     139.805
  H      258.108     806.060     136.836
  H      256.595     804.341     137.787
  H      253.030     812.323     142.099
  H      253.424     810.693     142.583
  H      258.288     804.110     138.284
  P      261.119     806.848     139.642
  C      262.935     806.220     137.900
  O      262.514     807.116     138.917
  O      261.291     805.385     140.288
  O      260.684     807.863     140.647
  H      261.562     805.453     141.224
  H      263.724     806.706     137.301
  H      262.114     805.964     137.233
  H      263.343     805.325     138.341
  H      253.378     802.247     138.910
  H      253.485     803.230     140.351
  H      254.185     801.629     140.331

 3  4  5  6  7  8  9  10  11  12  22  25  29  30  31  32 0
 6-311+G(2d,p)
 ****
 33  36  37 0
 6-311+G(2d,p)
 ****
 1  2  13  14  15  16  17  18  19  20  21  23  24  26 0
 3-21G
 ****
 27  28  34  35  38  39  40  41  42  43  44  45  46  47  48 0
 3-21G
 ****


