%nproc=1
%NoSave
%Mem=1900MB
#P OB98/GEN NMR

erre ene a

0 1
  C      437.064     308.235     -36.005
  O      435.757     308.092     -36.536
  P      434.452     308.394     -35.647
  C      434.725     310.952     -35.893
  O      434.692     309.843     -35.016
  C      433.597     311.933     -35.567
  O      433.796     313.147     -36.332
  C      432.191     311.405     -35.885
  O      431.304     311.928     -34.887
  C      431.900     312.022     -37.233
  O      430.507     312.095     -37.517
  C      432.589     313.384     -37.087
  N      432.888     314.005     -38.378
  C      431.922     314.847     -38.927
  O      430.849     315.037     -38.361
  N      432.201     315.459     -40.125
  C      433.296     315.187     -40.752
  N      433.549     315.869     -41.906
  C      434.296     314.224     -40.257
  C      434.041     313.691     -39.064
  O      434.110     307.327     -34.661
  O      433.303     308.682     -36.720
  H      430.373     312.735     -38.238
  H      432.861     307.861     -37.045
  H      435.183     314.005     -40.831
  H      434.725     312.991     -38.612
  H      431.973     314.057     -36.482
  H      432.367     311.424     -38.022
  H      432.135     310.313     -35.878
  H      433.675     312.200     -34.503
  H      432.935     316.645     -42.121
  H      434.586     310.586     -36.918
  H      434.492     315.958     -42.266
  H      435.703     311.442     -35.834
  P      430.016     311.062     -34.485
  C      431.344     309.501     -32.896
  O      430.510     309.608     -34.032
  O      429.369     310.755     -35.925
  O      429.005     311.738     -33.613
  H      428.410     310.608     -35.823
  H      431.571     308.443     -32.730
  H      430.833     309.888     -32.011
  H      432.278     310.041     -33.055
  H      437.784     307.986     -36.757
  H      437.182     307.580     -35.167
  H      437.212     309.247     -35.690

 3  4  5  6  7  8  9  10  11  12  13  23  27  28  29  30  32 0
 6-311+G(2d,p)
 ****
 34  35 0
 6-311+G(2d,p)
 ****
 1  2  14  15  16  17  18  19  20  21  22  24  25  26 0
 3-21G
 ****
 31  33  36  37  38  39  40  41  42  43  44  45  46 0
 3-21G
 ****


