%nproc=1
%NoSave
%Mem=1900MB
#P OB98/GEN NMR

erre ene a

0 1
  C      -54.606      70.449      27.904
  O      -54.291      71.555      27.084
  H      -54.037      70.525      28.833
  H      -54.322      69.524      27.395
  H      -55.673      70.431      28.143
  P      -55.231      71.813      25.812
  C      -55.818      70.512      23.650
  O      -54.958      70.616      24.774
  C      -55.506      69.241      22.859
  O      -54.231      69.413      22.187
  C      -55.409      67.978      23.726
  O      -55.985      66.881      23.012
  C      -53.913      67.765      23.873
  O      -53.576      66.403      24.132
  C      -53.400      68.289      22.536
  N      -48.724      66.580      23.318
  C      -49.918      65.895      23.203
  N      -49.859      64.551      23.321
  N      -51.069      66.477      22.991
  C      -50.971      67.821      22.857
  C      -49.852      68.615      22.955
  C      -48.589      67.962      23.220
  O      -47.503      68.516      23.355
  N      -50.170      69.941      22.795
  C      -51.476      69.946      22.600
  N      -52.005      68.685      22.623
  O      -54.552      73.082      25.109
  O      -56.669      72.066      26.119
  H      -53.981      65.860      23.422
  H      -55.164      73.840      25.136
  H      -47.868      66.084      23.494
  H      -52.083      70.828      22.447
  H      -53.477      67.542      21.737
  H      -53.534      68.373      24.704
  H      -49.001      64.034      23.437
  H      -55.906      68.084      24.692
  H      -50.716      64.023      23.203
  H      -56.264      69.122      22.075
  H      -55.672      71.385      23.007
  H      -56.859      70.490      23.990
  P      -57.395      66.329      23.540
  C      -58.143      64.678      25.394
  O      -57.157      65.602      24.953
  O      -57.711      65.117      22.541
  O      -58.487      67.347      23.523
  H      -58.431      65.367      21.934
  H      -57.855      64.275      26.342
  H      -58.233      63.885      24.681
  H      -59.084      65.179      25.490

 6  7  8  9  10  11  12  13  14  15  26  29  33  34 0
 6-311+G(2d,p)
 ****
 36  38  39  40  41 0
 6-311+G(2d,p)
 ****
 1  2  3  4  5  16  17  18  19  20  21  22  23  24  25 0
 3-21G
 ****
 27  28  30  31  32  35  37  42  43  44  45  46  47 0
 3-21G
 ****
 48  49 0
 3-21G
 ****


