%nproc=1
%NoSave
%Mem=1900MB
#P OB98/GEN NMR

erre ene a

0 1
  C      545.369    -459.777     377.996
  O      546.567    -459.437     377.278
  P      547.257    -457.993     377.414
  C      547.130    -457.049     375.010
  O      547.967    -457.623     376.017
  C      547.657    -457.344     373.608
  O      547.170    -458.617     373.136
  C      547.249    -456.318     372.550
  O      548.058    -455.153     372.650
  C      547.421    -457.126     371.269
  O      548.804    -457.152     370.872
  C      546.968    -458.520     371.707
  N      543.800    -459.905     367.935
  C      545.139    -459.742     367.970
  N      545.907    -459.362     369.021
  C      545.160    -459.174     370.118
  C      543.782    -459.299     370.234
  C      543.082    -459.681     369.069
  N      541.716    -459.839     369.029
  N      543.362    -458.994     371.509
  C      544.478    -458.706     372.168
  N      545.587    -458.808     371.367
  O      548.141    -457.845     378.609
  O      546.032    -456.963     377.489
  H      548.832    -457.400     369.927
  H      546.297    -456.172     378.001
  H      545.660    -459.932     367.043
  H      544.529    -458.438     373.207
  H      547.582    -459.305     371.250
  H      546.848    -456.711     370.428
  H      546.196    -456.050     372.675
  H      548.747    -457.419     373.663
  H      547.088    -455.969     375.171
  H      541.287    -460.075     368.152
  H      541.177    -459.622     369.855
  H      546.116    -457.462     375.134
  P      547.387    -453.713     372.814
  C      548.465    -452.795     370.670
  O      548.339    -452.661     372.076
  O      546.974    -453.348     374.197
  O      546.111    -453.778     371.835
  H      545.413    -453.195     372.175
  H      549.178    -453.595     370.443
  H      548.845    -451.852     370.253
  H      547.500    -453.023     370.212
  H      545.085    -460.781     377.760
  H      544.583    -459.108     377.715
  H      545.548    -459.695     379.048

 3  4  5  6  7  8  9  10  11  12  22  25  29  30  31  32 0
 6-311+G(2d,p)
 ****
 33  36  37 0
 6-311+G(2d,p)
 ****
 1  2  13  14  15  16  17  18  19  20  21  23  24  26 0
 3-21G
 ****
 27  28  34  35  38  39  40  41  42  43  44  45  46  47  48 0
 3-21G
 ****


