%nproc=1
%NoSave
%Mem=1900MB
#P OB98/GEN NMR

erre ene a

0 1
  C       -7.327     430.352    1191.739
  O       -7.390     431.744    1192.040
  P       -6.282     432.757    1191.478
  C       -7.937     433.146    1189.549
  O       -6.581     432.883    1189.908
  C       -7.983     433.846    1188.189
  O       -7.490     435.205    1188.356
  C       -7.102     433.243    1187.093
  O       -7.687     432.160    1186.393
  C       -6.955     434.427    1186.149
  O       -8.158     434.558    1185.358
  C       -6.835     435.617    1187.126
  N       -3.432     439.426    1187.241
  C       -4.752     439.396    1186.940
  N       -5.591     438.345    1186.910
  C       -4.934     437.217    1187.281
  C       -3.599     437.088    1187.609
  C       -2.830     438.270    1187.578
  N       -1.485     438.288    1187.907
  N       -3.289     435.776    1187.902
  C       -4.426     435.128    1187.771
  N       -5.453     435.962    1187.403
  O       -4.882     432.410    1191.857
  O       -6.732     434.182    1192.048
  H       -8.197     433.784    1184.770
  H       -5.999     434.818    1191.990
  H       -5.201     440.358    1186.697
  H       -4.567     434.068    1187.921
  H       -7.353     436.507    1186.763
  H       -6.119     434.323    1185.448
  H       -6.109     432.974    1187.477
  H       -9.018     433.901    1187.857
  H       -8.371     433.807    1190.311
  H       -1.044     439.186    1187.972
  H       -1.076     437.458    1188.302
  H       -8.501     432.220    1189.522
  P       -6.705     431.183    1185.574
  C       -5.844     430.055    1187.777
  O       -5.541     430.770    1186.604
  O       -6.238     431.737    1184.276
  O       -7.562     429.841    1185.426
  H       -7.735     429.357    1186.266
  H       -4.911     429.739    1188.242
  H       -6.434     429.162    1187.546
  H       -6.402     430.686    1188.471
  H       -8.150     429.849    1192.203
  H       -6.408     429.948    1192.109
  H       -7.376     430.214    1190.679

 3  4  5  6  7  8  9  10  11  12  22  25  29  30  31  32 0
 6-311+G(2d,p)
 ****
 33  36  37 0
 6-311+G(2d,p)
 ****
 1  2  13  14  15  16  17  18  19  20  21  23  24  26 0
 3-21G
 ****
 27  28  34  35  38  39  40  41  42  43  44  45  46  47  48 0
 3-21G
 ****


