%nproc=1
%NoSave
%Mem=1900MB
#P OB98/GEN NMR

erre ene a

0 1
  C        1.909       4.245       0.273
  O        2.073       3.022       0.962
  H        1.170       4.103      -0.520
  H        2.851       4.562      -0.182
  H        1.545       5.019       0.954
  P        3.168       2.944       2.128
  C        4.330       0.981       0.907
  O        3.736       1.445       2.114
  C        4.956      -0.396       1.111
  O        5.437      -0.920      -0.142
  C        6.156      -0.402       2.051
  O        5.737      -0.284       3.395
  C        6.793      -1.731       1.680
  O        6.095      -2.826       2.292
  C        6.591      -1.744       0.145
  N        7.757      -1.280      -0.600
  C        8.715      -2.252      -0.910
  O        8.558      -3.416      -0.546
  N        9.834      -1.867      -1.608
  C        9.965      -0.640      -2.000
  N       11.092      -0.326      -2.692
  C        8.962       0.406      -1.724
  C        7.901       0.024      -1.018
  O        2.733       3.428       3.476
  O        4.396       3.800       1.561
  H        5.215      -2.859       1.867
  H        4.343       4.723       1.875
  H        9.107       1.416      -2.079
  H        7.116       0.732      -0.771
  H        6.349      -2.758      -0.201
  H        7.833      -1.796       2.000
  H        6.851       0.401       1.784
  H        4.171      -1.074       1.472
  H       11.743      -1.083      -2.874
  H        5.102       1.707       0.629
  H       11.223       0.547      -3.181
  H        3.589       0.942       0.101
  P        6.496       0.678       4.429
  C        8.947      -0.071       4.239
  O        7.742      -0.171       4.981
  O        5.632       1.284       5.483
  O        7.205       1.759       3.487
  H        6.546       2.426       3.171
  H        9.700      -0.676       4.699
  H        9.270       0.949       4.220
  H        8.779      -0.411       3.238

 6  7  8  9  10  11  12  13  14  15  16  26  30  31  32  33  35 0
 6-311+G(2d,p)
 ****
 37  38 0
 6-311+G(2d,p)
 ****
 1  2  3  4  5  17  18  19  20  21  22  23  24  25 0
 3-21G
 ****
 27  28  29  34  36  39  40  41  42  43  44  45  46 0
 3-21G
 ****


