%nproc=1
%NoSave
%Mem=1900MB
#P OB98/GEN NMR

erre ene a

0 1
  C      108.603     -90.309     -12.911
  O      109.022     -90.817     -11.655
  P      110.545     -90.580     -11.208
  C      111.264     -92.933     -12.047
  O      111.478     -91.529     -12.108
  C      112.588     -93.688     -12.159
  O      113.071     -93.626     -13.528
  C      113.697     -93.135     -11.262
  O      114.536     -94.207     -10.814
  C      114.523     -92.276     -12.205
  O      115.854     -92.101     -11.728
  C      114.407     -93.089     -13.499
  N      117.572     -92.400     -17.385
  C      117.460     -93.479     -16.526
  N      118.367     -94.467     -16.672
  N      116.529     -93.584     -15.612
  C      115.691     -92.511     -15.572
  C      115.694     -91.396     -16.377
  C      116.739     -91.291     -17.381
  O      116.909     -90.352     -18.157
  N      114.665     -90.544     -16.063
  C      114.064     -91.122     -15.041
  N      114.668     -92.298     -14.684
  O      110.601     -91.260      -9.763
  O      110.961     -89.144     -11.144
  H      116.308     -91.507     -12.355
  H      110.618     -90.571      -9.071
  H      118.313     -92.363     -18.065
  H      113.212     -90.718     -14.511
  H      115.103     -93.937     -13.499
  H      114.064     -91.285     -12.313
  H      119.148     -94.419     -17.317
  H      113.341     -92.566     -10.395
  H      118.333     -95.245     -16.029
  H      112.405     -94.751     -11.935
  H      110.607     -93.230     -12.867
  H      110.767     -93.186     -11.106
  P      114.565     -94.470      -9.227
  C      116.506     -92.773      -8.827
  O      115.157     -93.131      -8.570
  O      115.743     -95.537      -9.054
  O      113.267     -94.951      -8.666
  H      115.606     -96.065      -8.243
  H      116.516     -91.823      -9.371
  H      117.029     -93.536      -9.419
  H      117.025     -92.649      -7.875
  H      107.571     -90.545     -13.065
  H      109.190     -90.752     -13.689
  H      108.732     -89.247     -12.927

 3  4  5  6  7  8  9  10  11  12  23  26  30  31 0
 6-311+G(2d,p)
 ****
 33  35  36  37  38 0
 6-311+G(2d,p)
 ****
 1  2  13  14  15  16  17  18  19  20  21  22  24  25 0
 3-21G
 ****
 27  28  29  32  34  39  40  41  42  43  44  45  46  47  48  49 0
 3-21G
 ****


