%nproc=1
%NoSave
%Mem=1900MB
#P OB98/GEN NMR

erre ene a

0 1
  C      201.747    -133.785    -153.466
  O      202.778    -134.722    -153.714
  H      200.794    -134.224    -153.772
  H      201.920    -132.875    -154.044
  H      201.699    -133.548    -152.399
  P      204.263    -134.270    -153.315
  C      205.509    -135.032    -155.476
  O      205.255    -135.260    -154.098
  C      205.056    -136.237    -156.311
  O      203.599    -136.290    -156.302
  C      205.491    -136.171    -157.785
  O      205.634    -137.523    -158.262
  C      204.278    -135.528    -158.436
  O      204.322    -135.667    -159.837
  C      203.170    -136.259    -157.682
  N      199.079    -135.551    -160.674
  C      200.191    -136.306    -160.832
  N      201.229    -136.453    -159.985
  C      201.040    -135.735    -158.865
  C      199.957    -134.928    -158.558
  C      198.940    -134.843    -159.526
  N      197.812    -134.070    -159.372
  N      200.118    -134.348    -157.312
  C      201.278    -134.799    -156.877
  N      201.872    -135.633    -157.785
  O      204.390    -134.731    -151.788
  O      204.560    -132.817    -153.489
  H      204.295    -136.614    -160.093
  H      204.180    -133.983    -151.197
  H      200.252    -136.862    -161.764
  H      201.735    -134.548    -155.927
  H      203.065    -137.298    -158.021
  H      204.249    -134.453    -158.227
  H      206.428    -135.630    -157.938
  H      205.408    -137.157    -155.831
  H      206.585    -134.872    -155.608
  H      204.970    -134.139    -155.804
  H      197.137    -134.053    -160.120
  H      197.703    -133.524    -158.529
  P      206.975    -137.936    -159.048
  C      205.519    -138.994    -160.951
  O      206.626    -139.124    -160.069
  O      207.805    -138.708    -157.912
  O      207.774    -136.804    -159.607
  H      208.761    -138.626    -158.091
  H      205.438    -139.874    -161.554
  H      205.664    -138.142    -161.582
  H      204.622    -138.868    -160.381

 6  7  8  9  10  11  12  13  14  15  25  28  32  33  34  35 0
 6-311+G(2d,p)
 ****
 36  37  40 0
 6-311+G(2d,p)
 ****
 1  2  3  4  5  16  17  18  19  20  21  22  23  24 0
 3-21G
 ****
 26  27  29  30  31  38  39 41  42  43  44  45  46  47  48 0
 3-21G
 ****


