%nproc=1
%NoSave
%Mem=1900MB
#P OB98/GEN NMR

erre ene a

0 1
  C       84.818    -281.839    -130.135
  O       85.700    -282.951    -130.072
  P       86.039    -283.712    -131.443
  C       87.960    -282.050    -131.934
  O       86.749    -282.632    -132.400
  C       88.730    -281.413    -133.085
  O       89.842    -280.646    -132.537
  C       89.316    -282.417    -134.090
  O       89.098    -281.932    -135.423
  C       90.809    -282.370    -133.819
  O       91.571    -282.746    -134.958
  C       90.966    -280.905    -133.404
  N       95.886    -279.996    -134.096
  C       94.856    -280.023    -135.015
  N       95.199    -279.838    -136.308
  N       93.603    -280.218    -134.699
  C       93.404    -280.357    -133.364
  C       94.338    -280.343    -132.354
  C       95.730    -280.187    -132.729
  O       96.696    -280.243    -131.971
  N       93.752    -280.500    -131.125
  C       92.463    -280.615    -131.387
  N       92.209    -280.586    -132.736
  O       84.596    -283.914    -132.104
  O       86.751    -285.010    -131.290
  H       92.509    -282.592    -134.736
  H       84.446    -284.862    -132.289
  H       96.833    -279.862    -134.396
  H       91.688    -280.756    -130.645
  H       90.878    -280.246    -134.280
  H       91.047    -283.051    -132.994
  H       96.140    -279.646    -136.616
  H       88.910    -283.431    -133.996
  H       94.457    -279.831    -136.995
  H       88.073    -280.695    -133.590
  H       88.579    -282.826    -131.473
  H       87.722    -281.296    -131.178
  P       89.031    -283.049    -136.576
  C       86.594    -283.919    -136.297
  O       87.972    -284.135    -136.068
  O       90.439    -283.797    -136.447
  O       88.799    -282.495    -137.942
  H       90.684    -284.214    -137.296
  H       86.412    -283.068    -136.962
  H       86.101    -283.727    -135.340
  H       86.162    -284.817    -136.748
  H       84.684    -281.434    -129.154
  H       83.872    -282.156    -130.522
  H       85.233    -281.090    -130.777

 3  4  5  6  7  8  9  10  11  12  23  26  30  31  33  0
 6-311+G(2d,p)
 ****
 35  36  37  38 0
 6-311+G(2d,p)
 ****
 1  2  13  14  15  16  17  18  19  20  21  22  24  25  27  28  29 0
 3-21G
 ****
 32  34  39  40  41  42  43  44  45  46  47  48  49 0
 3-21G
 ****


