%nproc=1
%NoSave
%Mem=1900MB
#P OB98/GEN NMR

erre ene a

0 1
  C       35.525     142.807     526.334
  O       34.293     142.662     525.660
  P       33.007     143.516     526.086
  C       33.078     144.651     523.775
  O       33.017     144.847     525.184
  C       32.538     145.887     523.043
  O       31.131     146.061     523.393
  C       33.285     147.182     523.425
  O       33.778     147.931     522.313
  C       32.275     147.903     524.304
  O       32.499     149.295     524.410
  C       30.948     147.462     523.679
  N       29.806     147.708     524.555
  C       28.855     148.624     524.117
  O       28.909     149.223     523.046
  N       27.836     148.891     524.985
  C       27.739     148.439     526.266
  O       26.848     148.798     527.025
  C       28.791     147.506     526.691
  C       29.749     147.168     525.825
  O       32.862     143.770     527.548
  O       31.796     142.689     525.444
  H       33.408     149.432     524.737
  H       31.836     142.588     524.475
  H       27.142     149.555     524.680
  H       28.745     147.137     527.705
  H       30.540     146.480     526.108
  H       30.768     147.965     522.730
  H       32.357     147.488     525.314
  H       34.184     146.960     524.012
  H       32.608     145.693     521.969
  H       32.467     143.787     523.511
  H       34.107     144.434     523.473
  P       34.867     149.098     522.401
  C       37.086     148.015     521.589
  O       36.293     148.429     522.679
  O       34.515     150.231     523.307
  O       34.996     149.605     520.888
  H       35.245     150.547     520.881
  H       37.716     147.179     521.910
  H       37.731     148.840     521.277
  H       36.469     147.691     520.746
  H       36.249     142.151     525.898
  H       35.397     142.561     527.367
  H       35.862     143.819     526.248

 3  4  5  6  7  8  9  10  11  12  13  23  28  29  30  31  32 0
 6-311+G(2d,p)
 ****
 33  34 0
 6-311+G(2d,p)
 ****
 1  2  14  15  16  17  18  19  20  21  22  24  25  26  27 0
 3-21G
 ****
 35  36  37  38  39  40  41  42  43  44  45 0
 3-21G
 ****


