%nproc=1
%NoSave
%Mem=1900MB
#P OB98/GEN NMR

erre ene a

0 1
  C      -42.504    -479.778    -122.025
  O      -43.667    -479.253    -122.635
  P      -45.090    -479.952    -122.387
  C      -46.006    -482.342    -122.842
  O      -45.077    -481.338    -123.186
  C      -46.182    -483.353    -123.982
  O      -44.905    -484.002    -124.205
  C      -47.176    -484.477    -123.702
  O      -47.555    -485.075    -124.943
  C      -46.330    -485.444    -122.908
  O      -46.875    -486.763    -122.906
  C      -44.930    -485.308    -123.576
  N      -43.842    -485.427    -122.591
  C      -43.799    -486.599    -121.853
  O      -44.568    -487.544    -122.046
  N      -42.893    -486.628    -120.828
  C      -42.091    -485.593    -120.459
  O      -41.523    -485.513    -119.375
  C      -42.015    -484.472    -121.416
  C      -42.901    -484.427    -122.413
  O      -46.087    -479.026    -123.227
  O      -45.497    -480.046    -120.955
  H      -46.209    -487.343    -122.458
  H      -46.511    -478.368    -122.649
  H      -42.965    -487.422    -120.203
  H      -41.278    -483.694    -121.241
  H      -42.905    -483.592    -123.108
  H      -44.784    -486.069    -124.349
  H      -46.280    -485.111    -121.865
  H      -48.064    -484.159    -123.145
  H      -46.454    -482.816    -124.899
  H      -46.967    -481.874    -122.586
  H      -45.674    -482.874    -121.942
  P      -48.564    -486.324    -124.899
  C      -48.144    -488.843    -124.652
  O      -47.727    -487.549    -124.277
  O      -49.297    -486.617    -126.156
  O      -49.565    -485.939    -123.704
  H      -50.382    -486.469    -123.774
  H      -47.278    -489.513    -124.630
  H      -48.581    -488.857    -125.665
  H      -48.889    -489.214    -123.939
  H      -41.657    -479.186    -122.303
  H      -42.356    -480.787    -122.349
  H      -42.619    -479.758    -120.961

 3  4  5  6  7  8  9  10  11  12  13  23  28  29  30  31  32 0
 6-311+G(2d,p)
 ****
 33  34 0
 6-311+G(2d,p)
 ****
 1  2  14  15  16  17  18  19  20  21  22  24  25  26  27 0
 3-21G
 ****
 35  36  37  38  39  40  41  42  43  44  45 0
 3-21G
 ****


