%nproc=1
%NoSave
%Mem=1900MB
#P OB98/GEN NMR

erre ene a

0 1
  C       71.426     -42.140     194.495
  O       72.681     -42.688     194.849
  P       73.527     -43.559     193.807
  C       74.751     -43.144     191.595
  O       73.746     -42.680     192.485
  C       74.251     -43.164     190.151
  O       73.212     -44.170     190.015
  C       73.675     -41.827     189.667
  O       74.065     -41.667     188.298
  C       72.177     -42.041     189.772
  O       71.444     -41.159     188.934
  C       72.075     -43.526     189.409
  N       70.826     -44.123     189.856
  C       69.721     -43.983     189.012
  O       69.793     -43.270     188.012
  N       68.563     -44.646     189.337
  C       68.463     -45.230     190.492
  N       67.324     -45.931     190.745
  C       69.529     -45.180     191.511
  C       70.687     -44.656     191.117
  O       72.998     -44.933     193.555
  O       74.995     -43.622     194.445
  H       75.276     -44.555     194.508
  H       71.621     -41.390     187.999
  H       69.353     -45.573     192.502
  H       71.539     -44.599     191.783
  H       72.164     -43.665     188.324
  H       71.854     -41.876     190.807
  H       74.038     -40.974     190.248
  H       75.084     -43.470     189.505
  H       66.633     -45.977     190.006
  H       75.026     -44.159     191.890
  H       67.285     -46.662     191.454
  H       75.646     -42.517     191.684
  P       74.301     -40.178     187.742
  C       76.213     -38.449     188.038
  O       75.477     -39.514     188.603
  O       73.002     -39.414     188.302
  O       74.377     -40.024     186.258
  H       72.815     -38.647     187.731
  H       77.008     -38.167     188.732
  H       75.566     -37.582     187.879
  H       76.664     -38.752     187.090
  H       71.027     -41.596     195.326
  H       70.754     -42.929     194.230
  H       71.547     -41.480     193.662

 3  4  5  6  7  8  9  10  11  12  13  24  27  28  29  30  32 0
 6-311+G(2d,p)
 ****
 34  35 0
 6-311+G(2d,p)
 ****
 1  2  14  15  16  17  18  19  20  21  22  23  25  26 0
 3-21G
 ****
 31  33  36  37  38  39  40  41  42  43  44  45  46 0
 3-21G
 ****


