%nproc=1
%NoSave
%Mem=1900MB
#P OB98/GEN NMR

erre ene a

0 1
  C      875.256    -291.780     318.945
  O      874.977    -291.950     320.339
  P      875.986    -292.812     321.244
  C      874.735    -291.845     323.330
  O      875.366    -292.955     322.717
  C      874.389    -292.164     324.788
  O      873.435    -293.247     324.851
  C      875.566    -292.631     325.628
  O      876.404    -291.544     326.015
  C      874.864    -293.289     326.800
  O      874.462    -292.325     327.778
  C      873.636    -293.921     326.107
  N      873.761    -295.365     325.935
  C      873.813    -296.132     327.092
  O      873.822    -295.645     328.228
  N      873.897    -297.489     326.908
  C      874.006    -298.136     325.705
  O      874.102    -299.350     325.606
  C      874.020    -297.264     324.522
  C      873.913    -295.944     324.685
  O      877.179    -291.771     321.492
  O      876.500    -294.069     320.618
  H      875.288    -291.994     328.202
  H      878.021    -292.257     321.626
  H      873.913    -298.065     327.735
  H      874.127    -297.723     323.547
  H      873.919    -295.281     323.820
  H      872.730    -293.724     326.705
  H      875.496    -294.016     327.317
  H      876.145    -293.386     325.081
  H      873.922    -291.265     325.231
  H      873.816    -291.604     322.786
  H      875.412    -290.978     323.278
  P      877.905    -291.547     325.426
  C      878.376    -288.982     325.191
  O      878.548    -290.172     325.935
  O      877.625    -291.329     323.872
  O      878.662    -292.795     325.751
  H      876.841    -290.759     323.713
  H      877.407    -288.952     324.700
  H      879.180    -288.906     324.449
  H      878.452    -288.126     325.881
  H      874.488    -291.184     318.498
  H      875.288    -292.737     318.468
  H      876.201    -291.292     318.827

 3  4  5  6  7  8  9  10  11  12  13  23  28  29  30  31  32 0
 6-311+G(2d,p)
 ****
 33  34 0
 6-311+G(2d,p)
 ****
 1  2  14  15  16  17  18  19  20  21  22  24  25  26 0
 3-21G
 ****
 27  35  36  37  38  39  40  41  42  43  44  45 0
 3-21G
 ****


