%nproc=1
%NoSave
%Mem=1900MB
#P OB98/GEN NMR

erre ene a

0 1
  C        7.796     319.429     228.113
  O        8.761     320.438     227.768
  P        9.587     321.084     228.983
  C       11.904     320.130     228.279
  O       11.106     321.289     228.500
  C       12.354     320.072     226.822
  O       11.258     319.761     225.928
  C       12.921     321.398     226.308
  O       14.232     321.619     226.814
  C       12.850     321.172     224.802
  O       13.954     320.363     224.360
  C       11.536     320.388     224.655
  N        8.769     322.096     220.699
  C        9.839     321.272     220.767
  N       10.525     320.869     221.860
  C        9.987     321.392     222.975
  C        8.892     322.244     223.067
  C        8.273     322.597     221.853
  N        7.185     323.450     221.789
  N        8.643     322.572     224.386
  C        9.582     321.948     225.076
  N       10.410     321.215     224.267
  O        9.685     319.886     230.044
  O        8.939     322.293     229.577
  H       14.743     320.946     224.307
  H        9.110     320.069     230.808
  H       10.198     320.895     219.811
  H        9.694     321.999     226.151
  H       11.621     319.588     223.914
  H       12.882     322.104     224.228
  H       12.264     322.227     226.598
  H       13.113     319.280     226.726
  H       11.342     319.229     228.528
  H        6.851     323.721     220.879
  H        6.867     323.895     222.639
  H       12.762     320.162     228.958
  P       14.577     323.095     227.344
  C       15.261     322.285     229.683
  O       15.711     322.833     228.462
  O       13.293     323.439     228.222
  O       14.934     324.081     226.280
  H       13.035     322.692     228.796
  H       16.129     322.124     230.339
  H       14.766     321.321     229.510
  H       14.566     322.979     230.176
  H        7.314     319.078     227.225
  H        7.065     319.846     228.774
  H        8.291     318.613     228.597

 3  4  5  6  7  8  9  10  11  12  22  25  29  30  31  32 0
 6-311+G(2d,p)
 ****
 33  36  37 0
 6-311+G(2d,p)
 ****
 1  2  13  14  15  16  17  18  19  20  21  23  24  26 0
 3-21G
 ****
 27  28  34  35  38  39  40  41  42  43  44  45  46  47  48 0
 3-21G
 ****


