%nproc=1
%NoSave
%Mem=1900MB
#P OB98/GEN NMR

erre ene a

0 1
  C     1053.499    -144.324    -139.249
  O     1053.049    -144.348    -137.908
  H     1054.470    -144.844    -139.299
  H     1053.644    -143.292    -139.574
  H     1052.796    -144.833    -139.907
  P     1051.587    -143.792    -137.578
  C     1052.154    -144.050    -135.069
  O     1051.642    -143.198    -136.087
  C     1052.477    -143.238    -133.827
  O     1053.670    -142.445    -134.042
  C     1051.393    -142.243    -133.436
  O     1050.309    -142.899    -132.808
  C     1052.173    -141.297    -132.532
  O     1052.301    -141.847    -131.219
  C     1053.540    -141.250    -133.249
  N     1053.701    -140.035    -134.082
  C     1053.537    -138.820    -133.430
  O     1053.238    -138.719    -132.240
  N     1053.694    -137.714    -134.221
  C     1053.891    -137.697    -135.564
  O     1053.937    -136.674    -136.237
  C     1054.031    -139.017    -136.200
  C     1053.922    -140.121    -135.433
  O     1050.456    -144.727    -137.842
  O     1051.473    -142.467    -138.472
  H     1051.416    -141.782    -130.802
  H     1050.893    -142.642    -139.244
  H     1053.573    -136.810    -133.781
  H     1054.191    -139.049    -137.266
  H     1054.018    -141.090    -135.886
  H     1054.353    -141.261    -132.510
  H     1051.681    -140.324    -132.427
  H     1051.061    -141.692    -134.322
  H     1052.693    -143.930    -132.995
  H     1053.075    -144.523    -135.443
  H     1051.416    -144.820    -134.844
  P     1048.873    -142.928    -133.530
  C     1047.683    -143.180    -131.261
  O     1047.780    -142.426    -132.462
  O     1048.536    -144.205    -134.228
  O     1048.947    -141.716    -134.577
  H     1048.824    -142.061    -135.472
  H     1046.928    -142.755    -130.633
  H     1048.624    -143.161    -130.751
  H     1047.424    -144.191    -131.495

 6  7  8  9  10  11  12  13  14  15  16  26  31  32  33  34  35 0
 6-311+G(2d,p)
 ****
 36  37 0
 6-311+G(2d,p)
 ****
 1  2  3  4  5  17  18  19  20  21  22  23  24  25 0
 3-21G
 ****
 27  28  29  30  38  39  40  41  42  43  44  45 0
 3-21G
 ****


