%nproc=1
%NoSave
%Mem=1900MB
#P OB98/GEN NMR

erre ene a

0 1
  C     1250.784    1505.035    -803.270
  O     1250.176    1505.735    -802.176
  P     1249.218    1506.950    -802.600
  C     1246.930    1505.822    -802.005
  O     1247.794    1506.306    -803.032
  C     1245.750    1505.054    -802.580
  O     1244.851    1505.960    -803.328
  C     1246.146    1503.914    -803.531
  O     1245.203    1502.858    -803.346
  C     1245.974    1504.578    -804.878
  O     1245.923    1503.627    -805.966
  C     1244.685    1505.357    -804.626
  N     1241.881    1506.537    -808.729
  C     1241.918    1505.450    -807.957
  N     1242.702    1505.193    -806.882
  C     1243.506    1506.253    -806.633
  C     1243.573    1507.451    -807.329
  C     1242.718    1507.591    -808.454
  N     1242.683    1508.706    -809.250
  N     1244.547    1508.269    -806.794
  C     1245.100    1507.574    -805.822
  N     1244.438    1506.379    -805.635
  O     1249.839    1507.439    -803.984
  O     1249.131    1508.011    -801.593
  H     1245.315    1502.925    -805.736
  H     1250.390    1508.222    -803.845
  H     1241.228    1504.659    -808.203
  H     1245.943    1507.837    -805.230
  H     1243.801    1504.711    -804.612
  H     1246.820    1505.206    -805.099
  H     1247.172    1503.521    -803.361
  H     1245.165    1504.652    -801.723
  H     1246.575    1506.676    -801.407
  H     1242.024    1508.715    -810.019
  H     1243.292    1509.477    -809.065
  H     1247.514    1505.219    -801.312
  P     1245.265    1502.011    -801.994
  C     1243.000    1502.998    -801.312
  O     1244.354    1502.825    -800.940
  O     1246.758    1502.340    -801.454
  O     1245.005    1500.529    -802.154
  H     1246.887    1503.284    -801.473
  H     1242.477    1503.481    -800.470
  H     1242.517    1502.006    -801.479
  H     1242.941    1503.636    -802.198
  H     1251.401    1504.247    -802.891
  H     1251.383    1505.715    -803.839
  H     1250.022    1504.621    -803.896

 3  4  5  6  7  8  9  10  11  12  22  25  29  30  31  32 0
 6-311+G(2d,p)
 ****
 33  36  37 0
 6-311+G(2d,p)
 ****
 1  2  13  14  15  16  17  18  19  20  21  23  24  26 0
 3-21G
 ****
 27  28  34  35  38  39  40  41  42  43  44  45  46  47  48 0
 3-21G
 ****


