%nproc=1
%NoSave
%Mem=1900MB
#P OB98/GEN NMR

erre ene a

0 1
  C      228.629     103.155    -116.554
  O      229.789     102.763    -115.834
  P      231.192     102.773    -116.618
  C      232.070     101.427    -118.701
  O      231.125     101.548    -117.648
  C      232.172      99.966    -119.153
  O      232.670      99.150    -118.070
  C      230.848      99.335    -119.568
  O      230.443      99.752    -120.858
  C      231.181      97.850    -119.451
  O      231.899      97.407    -120.614
  C      232.109      97.826    -118.216
  N      231.423      97.405    -116.989
  C      231.712      96.118    -116.541
  O      232.488      95.358    -117.121
  N      231.051      95.721    -115.407
  C      230.111      96.445    -114.727
  O      229.517      96.025    -113.740
  C      229.827      97.785    -115.266
  C      230.487      98.196    -116.357
  O      232.177     102.279    -115.456
  O      231.527     104.102    -117.209
  H      231.715     101.723    -114.805
  H      231.307      97.550    -121.378
  H      231.260      94.800    -115.044
  H      229.082      98.385    -114.764
  H      230.286      99.176    -116.775
  H      232.956      97.155    -118.390
  H      230.287      97.220    -119.357
  H      230.072      99.594    -118.837
  H      232.900      99.911    -119.979
  H      233.046     101.773    -118.350
  H      231.758     102.066    -119.539
  P      228.894     100.170    -121.030
  C      226.662      98.809    -121.097
  O      228.076      98.798    -121.131
  O      228.892     100.743    -122.528
  O      228.416     101.134    -119.994
  H      229.420     100.203    -123.144
  H      226.295      97.875    -121.526
  H      226.258      99.647    -121.673
  H      226.321      98.879    -120.060
  H      227.775     103.101    -115.912
  H      228.489     102.501    -117.389
  H      228.749     104.159    -116.904

 3  4  5  6  7  8  9  10  11  12  13  24  28  29  30  31  32 0
 6-311+G(2d,p)
 ****
 33  34 0
 6-311+G(2d,p)
 ****
 1  2  14  15  16  17  18  19  20  21  22  23  25  26  27 0
 3-21G
 ****
 35  36  37  38  39  40  41  42  43  44  45 0
 3-21G
 ****


