%nproc=1
%NoSave
%Mem=1900MB
#P OB98/GEN NMR

erre ene a

0 1
  C     -704.333    -894.350    1357.295
  O     -703.777    -894.090    1358.602
  P     -704.471    -894.740    1359.872
  C     -702.431    -895.990    1360.954
  O     -703.674    -896.080    1360.262
  C     -701.284    -896.440    1360.046
  O     -701.200    -895.620    1358.870
  C     -699.914    -896.310    1360.728
  O     -699.632    -897.450    1361.530
  C     -698.988    -896.310    1359.529
  O     -698.805    -897.660    1359.040
  C     -699.778    -895.470    1358.513
  N     -696.817    -892.020    1356.286
  C     -696.966    -893.380    1356.043
  N     -696.203    -893.890    1355.041
  N     -697.788    -894.150    1356.702
  C     -698.489    -893.510    1357.650
  C     -698.445    -892.170    1357.994
  C     -697.515    -891.330    1357.273
  O     -697.347    -890.130    1357.460
  N     -699.306    -891.890    1359.029
  C     -699.874    -893.050    1359.275
  N     -699.425    -894.070    1358.490
  O     -705.844    -895.300    1359.290
  O     -704.681    -893.780    1361.012
  H     -698.206    -897.590    1358.246
  H     -706.540    -895.300    1359.996
  H     -696.180    -891.470    1355.757
  H     -700.663    -893.200    1360.045
  H     -699.687    -895.840    1357.479
  H     -697.992    -895.920    1359.761
  H     -695.593    -893.330    1354.452
  H     -699.833    -895.370    1361.292
  H     -696.320    -894.860    1354.822
  H     -701.452    -897.470    1359.744
  H     -702.481    -896.620    1361.857
  H     -702.319    -894.950    1361.317
  P     -700.234    -897.490    1363.027
  C     -701.826    -899.550    1362.842
  O     -701.697    -898.110    1362.914
  O     -700.539    -895.950    1363.321
  O     -699.341    -898.080    1364.040
  H     -700.410    -895.740    1364.270
  H     -702.879    -899.810    1362.906
  H     -701.287    -900.000    1363.677
  H     -701.424    -899.920    1361.878
  H     -703.753    -893.842    1356.553
  H     -705.343    -893.998    1357.260
  H     -704.316    -895.402    1357.103

 3  4  5  6  7  8  9  10  11  12  23  26  30  31 0
 6-311+G(2d,p)
 ****
 33  35  36  37  38 0
 6-311+G(2d,p)
 ****
 1  2  13  14  15  16  17  18  19  20  21  22  24  25 0
 3-21G
 ****
 27  28  29  32  34  39  40  41  42  43  44  45  46  47  48  49 0
 3-21G
 ****


