%nproc=1
%NoSave
%Mem=1900MB
#P OB98/GEN NMR

erre ene a

0 1
  C     -263.117     -23.724      60.502
  O     -262.793     -25.117      60.576
  P     -263.615     -26.011      61.626
  C     -265.867     -26.480      60.379
  O     -264.580     -26.949      60.743
  C     -266.361     -27.177      59.103
  O     -265.747     -26.556      57.933
  C     -266.057     -28.679      59.047
  O     -267.183     -29.307      58.408
  C     -264.835     -28.748      58.150
  O     -264.679     -30.033      57.559
  C     -265.149     -27.616      57.161
  N     -263.963     -27.156      56.441
  C     -263.896     -27.449      55.082
  O     -264.738     -28.134      54.502
  N     -262.800     -26.966      54.420
  C     -261.743     -26.305      54.985
  O     -260.790     -25.894      54.344
  C     -261.816     -26.125      56.448
  C     -262.906     -26.554      57.095
  O     -264.593     -24.927      62.271
  O     -262.736     -26.730      62.597
  H     -264.911     -24.261      61.630
  H     -265.472     -30.229      57.010
  H     -262.746     -27.141      53.427
  H     -260.971     -25.660      56.940
  H     -262.979     -26.456      58.173
  H     -265.891     -27.949      56.426
  H     -263.932     -28.521      58.727
  H     -265.901     -29.125      60.036
  H     -267.445     -27.013      59.027
  H     -265.832     -25.398      60.196
  H     -266.564     -26.642      61.211
  P     -267.866     -30.567      59.143
  C     -269.616     -29.606      60.841
  O     -269.350     -30.126      59.552
  O     -267.078     -30.537      60.540
  O     -267.723     -31.872      58.425
  H     -267.037     -29.650      60.934
  H     -270.608     -29.150      60.837
  H     -268.886     -28.842      61.115
  H     -269.598     -30.415      61.577
  H     -262.498     -23.252      59.768
  H     -262.950     -23.268      61.455
  H     -264.145     -23.611      60.228

 3  4  5  6  7  8  9  10  11  12  13  24  28  29  30  31  32 0
 6-311+G(2d,p)
 ****
 33  34 0
 6-311+G(2d,p)
 ****
 1  2  14  15  16  17  18  19  20  21  22  23  25  26  27 0
 3-21G
 ****
 35  36  37  38  39  40  41  42  43  44  45 0
 3-21G
 ****


