%nproc=1
%NoSave
%Mem=1900MB
#P OB98/GEN NMR

erre ene a

0 1
  C      -58.174     -14.087     -28.496
  O      -59.397     -14.667     -28.893
  P      -60.785     -13.893     -28.707
  C      -61.934     -12.010     -30.037
  O      -60.695     -12.561     -29.602
  C      -61.916     -10.483     -29.892
  O      -62.225     -10.143     -28.505
  C      -60.547      -9.865     -30.237
  O      -60.601      -8.809     -31.196
  C      -59.998      -9.482     -28.872
  O      -58.988      -8.493     -28.916
  C      -61.280      -9.130     -28.111
  N      -61.079      -9.087     -26.665
  C      -60.279      -8.064     -26.166
  O      -59.747      -7.199     -26.855
  N      -60.044      -8.090     -24.819
  C      -60.422      -9.077     -23.960
  O      -60.092      -9.087     -22.782
  C      -61.231     -10.153     -24.552
  C      -61.539     -10.102     -25.850
  O      -61.200     -13.655     -27.294
  O      -61.814     -14.788     -29.547
  H      -59.353      -7.711     -29.371
  H      -61.599     -14.883     -30.490
  H      -59.466      -7.354     -24.444
  H      -61.536     -10.956     -23.896
  H      -62.134     -10.881     -26.314
  H      -61.683      -8.168     -28.430
  H      -59.547     -10.379     -28.430
  H      -59.886     -10.608     -30.699
  H      -62.704     -10.078     -30.532
  H      -62.737     -12.418     -29.420
  H      -62.129     -12.307     -31.073
  P      -59.443      -8.458     -32.243
  C      -58.302      -9.690     -34.228
  O      -59.086      -9.788     -33.057
  O      -58.271      -7.731     -31.675
  O      -60.189      -7.555     -33.335
  H      -59.553      -6.933     -33.734
  H      -58.567     -10.514     -34.896
  H      -57.246      -9.782     -33.962
  H      -58.470      -8.743     -34.747
  H      -57.373     -14.765     -28.706
  H      -58.201     -13.881     -27.446
  H      -58.020     -13.175     -29.034

 3  4  5  6  7  8  9  10  11  12  13  23  28  29  30  31  32 0
 6-311+G(2d,p)
 ****
 33  34 0
 6-311+G(2d,p)
 ****
 1  2  14  15  16  17  18  19  20  21  22  24  25  26  27 0
 3-21G
 ****
 35  36  37  38  39  40  41  42  43  44  45 0
 3-21G
 ****


