%nproc=1
%NoSave
%Mem=1900MB
#P OB98/GEN NMR

erre ene a

0 1
  C       64.152    -140.598    -395.568
  O       63.246    -140.123    -396.544
  H       63.699    -140.475    -394.581
  H       65.083    -140.026    -395.598
  H       64.363    -141.659    -395.725
  P       63.685    -140.193    -398.082
  C       61.198    -139.794    -398.645
  O       62.544    -139.420    -398.901
  C       60.290    -138.572    -398.728
  O       60.557    -137.828    -399.932
  C       58.800    -138.907    -398.745
  O       58.332    -139.155    -397.429
  C       58.238    -137.631    -399.349
  O       58.212    -136.592    -398.353
  C       59.290    -137.310    -400.425
  N       56.075    -137.507    -404.337
  C       55.975    -136.826    -403.140
  N       54.833    -136.132    -402.943
  N       56.899    -136.840    -402.216
  C       57.950    -137.633    -402.524
  C       58.155    -138.369    -403.668
  C       57.151    -138.301    -404.709
  O       57.209    -138.876    -405.791
  N       59.311    -139.103    -403.594
  C       59.823    -138.781    -402.422
  N       59.027    -137.902    -401.727
  O       63.997    -141.556    -398.623
  O       64.940    -139.207    -398.175
  H       57.721    -135.845    -398.742
  H       65.777    -139.688    -398.046
  H       55.320    -137.472    -405.002
  H       60.764    -139.150    -402.032
  H       59.413    -136.232    -400.579
  H       57.223    -137.745    -399.728
  H       53.995    -136.317    -403.479
  H       58.579    -139.739    -399.422
  H       54.719    -135.666    -402.052
  H       60.534    -137.915    -397.884
  H       61.161    -140.231    -397.641
  H       60.867    -140.547    -399.367
  P       57.203    -140.262    -397.147
  C       58.368    -140.402    -394.845
  O       57.135    -140.386    -395.551
  O       57.400    -141.555    -397.864
  O       55.829    -139.532    -397.496
  H       55.566    -139.616    -398.446
  H       58.177    -140.488    -393.796
  H       58.901    -139.494    -395.037
  H       58.954    -141.236    -395.170

 6  7  8  9  10  11  12  13  14  15  26  29  33  34 0
 6-311+G(2d,p)
 ****
 36  38  39  40  41 0
 6-311+G(2d,p)
 ****
 1  2  3  4  5  16  17  18  19  20  21  22  23  24  25 0
 3-21G
 ****
 27  28  30  31  32  35  37  42  43  44  45  46  47 0
 3-21G
 ****
 48  49 0
 3-21G
 ****


