%nproc=1
%NoSave
%Mem=1900MB
#P OB98/GEN NMR

erre ene a

0 1
  C        0.024      10.721       1.194
  O        0.051       9.405       0.682
  H        0.908      10.873       1.818
  H       -0.868      10.872       1.806
  H        0.041      11.444       0.374
  P       -1.196       8.953      -0.220
  C       -2.590       8.502       1.925
  O       -2.511       9.169       0.673
  C       -3.964       8.736       2.543
  O       -4.110      10.127       2.906
  C       -5.125       8.437       1.606
  O       -5.389       7.050       1.502
  C       -6.248       9.201       2.287
  O       -6.843       8.432       3.345
  C       -5.516      10.440       2.847
  N       -5.778      11.638       2.057
  C       -7.115      12.004       1.942
  O       -8.034      11.373       2.463
  N       -7.370      13.105       1.171
  C       -6.442      13.835       0.489
  O       -6.744      14.768      -0.245
  C       -5.042      13.410       0.659
  C       -4.779      12.342       1.415
  O       -1.037       7.362      -0.286
  O       -1.252       9.571      -1.576
  H       -0.668       7.101      -1.150
  H       -7.746       8.786       3.464
  H       -8.334      13.379       1.067
  H       -4.279      13.972       0.136
  H       -3.757      11.998       1.539
  H       -5.837      10.639       3.878
  H       -7.047       9.448       1.588
  H       -4.942       8.882       0.620
  H       -4.040       8.133       3.458
  H       -1.823       8.897       2.599
  H       -2.407       7.434       1.771
  P       -5.723       6.440       0.057
  C       -8.263       6.812       0.613
  O       -7.202       6.934      -0.316
  O       -5.905       4.892       0.408
  O       -4.686       6.735      -0.973
  H       -6.317       4.745       1.277
  H       -9.163       7.195       0.179
  H       -8.029       7.368       1.497
  H       -8.399       5.781       0.865

 6  7  8  9  10  11  12  13  14  15  16  27  31  32  33  34  35 0
 6-311+G(2d,p)
 ****
 36  37 0
 6-311+G(2d,p)
 ****
 1  2  3  4  5  17  18  19  20  21  22  23  24  25 0
 3-21G
 ****
 26  28  29  30  38  39  40  41  42  43  44  45 0
 3-21G
 ****


