%nproc=1
%NoSave
%Mem=1900MB
#P OB98/GEN NMR

erre ene a

0 1
  C      -25.033      20.792      83.662
  O      -25.337      19.755      84.570
  P      -25.091      19.866      86.144
  C      -27.588      19.548      86.788
  O      -26.257      19.053      86.894
  C      -28.434      19.262      88.036
  O      -28.772      17.861      88.077
  C      -27.621      19.547      89.302
  O      -27.526      20.865      89.806
  C      -28.083      18.505      90.312
  O      -29.057      19.017      91.222
  C      -28.691      17.407      89.437
  N      -27.341      13.382      92.206
  C      -28.344      14.302      92.441
  N      -28.926      14.243      93.658
  N      -28.717      15.204      91.571
  C      -27.976      15.199      90.438
  C      -26.970      14.330      90.087
  C      -26.596      13.313      91.040
  O      -25.657      12.532      90.904
  N      -26.394      14.672      88.891
  C      -27.023      15.773      88.534
  N      -27.964      16.154      89.461
  O      -24.703      21.210      86.671
  O      -23.821      18.888      86.335
  H      -28.605      19.627      91.833
  H      -23.270      19.261      87.050
  H      -27.044      12.760      92.947
  H      -26.814      16.348      87.640
  H      -29.718      17.186      89.754
  H      -27.241      18.160      90.924
  H      -28.567      13.661      94.401
  H      -26.581      19.277      89.076
  H      -29.541      15.003      93.927
  H      -29.387      19.796      87.996
  H      -28.038      19.090      85.902
  H      -27.562      20.627      86.613
  P      -26.354      21.450      90.722
  C      -24.234      21.639      89.303
  O      -25.375      22.316      89.797
  O      -25.460      20.171      91.085
  O      -26.811      22.135      91.968
  H      -24.948      20.348      91.896
  H      -23.505      22.375      88.957
  H      -24.523      21.002      88.461
  H      -23.777      21.022      90.082
  H      -25.285      20.482      82.669
  H      -23.988      21.014      83.711
  H      -25.596      21.666      83.917

 3  4  5  6  7  8  9  10  11  12  23  26  30  31 0
 6-311+G(2d,p)
 ****
 33  35  36  37  38 0
 6-311+G(2d,p)
 ****
 1  2  13  14  15  16  17  18  19  20  21  22  24  25 0
 3-21G
 ****
 27  28  29  32  34  39  40  41  42  43  44  45  46  47  48  49 0
 3-21G
 ****


