%nproc=1
%NoSave
%Mem=1900MB
#P OB98/GEN NMR

erre ene a

0 1
  C       78.994     -33.849    -137.202
  O       80.054     -34.763    -137.510
  P       79.964     -36.248    -136.916
  C       78.798     -37.366    -138.954
  O       79.960     -37.276    -138.145
  C       78.469     -38.832    -139.252
  O       77.157     -38.977    -139.840
  C       79.437     -39.489    -140.228
  O       80.615     -39.944    -139.576
  C       78.615     -40.679    -140.699
  O       78.674     -41.734    -139.717
  C       77.202     -40.089    -140.769
  N       75.693     -41.532    -145.378
  C       75.947     -42.284    -144.247
  N       75.764     -43.619    -144.359
  N       76.344     -41.776    -143.110
  C       76.466     -40.429    -143.141
  C       76.247     -39.575    -144.196
  C       75.823     -40.150    -145.453
  O       75.597     -39.535    -146.489
  N       76.483     -38.272    -143.843
  C       76.826     -38.334    -142.570
  N       76.849     -39.624    -142.101
  O       78.454     -36.328    -136.386
  O       80.945     -36.536    -135.829
  H       78.438     -41.330    -138.861
  H       78.395     -36.963    -135.649
  H       75.396     -41.976    -146.229
  H       77.066     -37.481    -141.951
  H       76.433     -40.807    -140.463
  H       78.991     -41.098    -141.636
  H       75.413     -44.070    -145.189
  H       79.661     -38.826    -141.072
  H       75.914     -44.183    -143.532
  H       78.487     -39.385    -138.303
  H       78.941     -36.821    -139.890
  H       77.970     -36.866    -138.444
  P       82.027     -39.417    -140.126
  C       82.088     -36.843    -139.802
  O       82.381     -38.116    -139.263
  O       81.651     -38.837    -141.570
  O       83.090     -40.457    -140.208
  H       82.405     -38.943    -142.178
  H       82.242     -36.092    -139.023
  H       81.050     -36.792    -140.138
  H       82.761     -36.625    -140.636
  H       79.192     -32.905    -137.665
  H       78.931     -33.720    -136.142
  H       78.068     -34.239    -137.570

 3  4  5  6  7  8  9  10  11  12  23  26  30  31 0
 6-311+G(2d,p)
 ****
 33  35  36  37  38 0
 6-311+G(2d,p)
 ****
 1  2  13  14  15  16  17  18  19  20  21  22  24  25 0
 3-21G
 ****
 27  28  29  32  34  39  40  41  42  43  44  45  46  47  48  49 0
 3-21G
 ****


