%nproc=1
%NoSave
%Mem=1900MB
#P OB98/GEN NMR

erre ene a

0 1
  C      111.155     -81.879    -444.861
  O      110.143     -82.286    -445.755
  H      110.844     -82.143    -443.843
  H      111.302     -80.800    -444.906
  H      112.092     -82.396    -445.086
  P      110.248     -81.854    -447.300
  C      109.795     -79.606    -448.452
  O      109.403     -80.481    -447.401
  C      109.028     -78.279    -448.391
  O      107.602     -78.533    -448.479
  C      109.270     -77.483    -447.100
  O      109.529     -76.114    -447.430
  C      107.955     -77.608    -446.344
  O      107.758     -76.538    -445.424
  C      106.957     -77.696    -447.504
  N      105.662     -78.231    -447.099
  C      104.640     -77.300    -446.874
  O      104.869     -76.097    -446.985
  N      103.402     -77.756    -446.499
  C      103.207     -79.021    -446.302
  N      101.962     -79.407    -445.921
  C      104.273     -80.041    -446.483
  C      105.460     -79.578    -446.889
  O      109.846     -82.908    -448.272
  O      111.759     -81.356    -447.476
  H      106.825     -76.576    -445.100
  H      112.000     -81.375    -448.436
  H      104.063     -81.080    -446.305
  H      106.289     -80.249    -447.054
  H      106.798     -76.705    -447.955
  H      107.954     -78.550    -445.778
  H      110.106     -77.855    -446.514
  H      109.285     -77.689    -449.277
  H      101.263     -78.678    -445.807
  H      109.614     -80.108    -449.412
  H      101.698     -80.366    -445.737
  H      110.866     -79.401    -448.349
  P      111.064     -75.642    -447.357
  C      112.689     -74.838    -445.500
  O      111.445     -75.469    -445.801
  O      111.007     -74.136    -447.902
  O      111.990     -76.496    -448.155
  H      111.296     -74.111    -448.836
  H      112.816     -74.788    -444.439
  H      112.695     -73.848    -445.907
  H      113.489     -75.405    -445.929

 6  7  8  9  10  11  12  13  14  15  16  26  30  31  32  33  35 0
 6-311+G(2d,p)
 ****
 37  38 0
 6-311+G(2d,p)
 ****
 1  2  3  4  5  17  18  19  20  21  22  23  24  25 0
 3-21G
 ****
 27  28  29  34  36  39  40  41  42  43  44  45  46 0
 3-21G
 ****


