%nproc=1
%NoSave
%Mem=1900MB
#P OB98/GEN NMR

erre ene a

0 1
  C     -377.990     317.358    -386.472
  O     -378.103     317.691    -387.842
  H     -378.364     316.341    -386.326
  H     -378.588     318.044    -385.866
  H     -376.943     317.399    -386.159
  P     -377.657     319.178    -388.249
  C     -375.430     318.440    -389.349
  O     -376.052     319.169    -388.302
  C     -374.281     319.243    -389.950
  O     -374.721     320.569    -390.315
  C     -373.081     319.416    -389.025
  O     -372.228     318.285    -389.083
  C     -372.438     320.668    -389.606
  O     -371.654     320.351    -390.776
  C     -373.663     321.512    -389.986
  N     -373.046     326.111    -387.995
  C     -372.349     325.475    -389.005
  N     -371.313     326.153    -389.547
  N     -372.630     324.274    -389.436
  C     -373.652     323.692    -388.765
  C     -374.418     324.216    -387.750
  C     -374.128     325.567    -387.320
  O     -374.763     326.214    -386.491
  N     -375.374     323.322    -387.338
  C     -375.163     322.252    -388.079
  N     -374.124     322.425    -388.956
  O     -377.976     320.037    -386.934
  O     -378.343     319.749    -389.443
  H     -370.929     319.756    -390.521
  H     -378.312     320.912    -387.205
  H     -372.804     327.047    -387.725
  H     -375.737     321.335    -388.026
  H     -373.482     322.117    -390.881
  H     -371.757     321.136    -388.895
  H     -370.876     326.930    -389.074
  H     -373.403     319.618    -387.997
  H     -370.759     325.656    -390.233
  H     -373.978     318.740    -390.879
  H     -376.172     318.229    -390.125
  H     -375.050     317.493    -388.952
  P     -371.107     318.126    -387.948
  C     -372.583     317.119    -386.064
  O     -371.828     318.235    -386.518
  O     -370.288     319.497    -388.062
  O     -370.207     316.951    -388.126
  H     -369.429     319.336    -388.495
  H     -373.001     317.338    -385.104
  H     -371.945     316.263    -385.989
  H     -373.372     316.916    -386.758

 6  7  8  9  10  11  12  13  14  15  26  29  33  34 0
 6-311+G(2d,p)
 ****
 36  38  39  40  41 0
 6-311+G(2d,p)
 ****
 1  2  3  4  5  16  17  18  19  20  21  22  23  24  25 0
 3-21G
 ****
 27  28  30  31  32  35  37  42  43  44  45  46  47 0
 3-21G
 ****
 48  49 0
 3-21G
 ****


