%nproc=1
%NoSave
%Mem=1900MB
#P OB98/GEN NMR

erre ene a

0 1
  C      -66.526      49.402     -38.284
  O      -67.189      48.217     -37.890
  H      -65.649      49.543     -37.647
  H      -67.188      50.264     -38.168
  H      -66.199      49.323     -39.324
  P      -68.569      47.890     -38.644
  C      -69.102      47.451     -41.161
  O      -68.156      47.889     -40.197
  C      -68.877      48.190     -42.475
  O      -69.182      49.594     -42.328
  C      -67.441      48.137     -42.982
  O      -67.121      46.907     -43.611
  C      -67.457      49.289     -43.968
  O      -68.140      48.887     -45.170
  C      -68.279      50.340     -43.188
  N      -67.448      51.248     -42.395
  C      -66.764      52.247     -43.098
  O      -66.863      52.333     -44.320
  N      -65.953      53.110     -42.399
  C      -65.842      52.994     -41.112
  N      -65.016      53.866     -40.474
  C      -66.557      51.968     -40.332
  C      -67.331      51.139     -41.028
  O      -69.405      49.248     -38.508
  O      -69.294      46.671     -38.183
  H      -69.079      48.773     -44.937
  H      -70.228      49.191     -39.051
  H      -66.424      51.904     -39.262
  H      -67.886      50.356     -40.521
  H      -68.897      50.938     -43.868
  H      -66.458      49.618     -44.260
  H      -66.724      48.368     -42.186
  H      -69.577      47.781     -43.217
  H      -64.492      54.518     -41.042
  H      -70.107      47.657     -40.777
  H      -64.729      53.740     -39.512
  H      -68.998      46.374     -41.328
  P      -65.590      46.426     -43.572
  C      -64.195      45.193     -41.762
  O      -65.232      46.124     -42.038
  O      -64.782      47.772     -43.878
  O      -65.247      45.334     -44.537
  H      -64.011      47.598     -44.450
  H      -64.074      45.098     -40.703
  H      -63.280      45.539     -42.196
  H      -64.450      44.241     -42.179

 6  7  8  9  10  11  12  13  14  15  16  26  30  31  32  33  35 0
 6-311+G(2d,p)
 ****
 37  38 0
 6-311+G(2d,p)
 ****
 1  2  3  4  5  17  18  19  20  21  22  23  24  25 0
 3-21G
 ****
 27  28  29  34  36  39  40  41  42  43  44  45  46 0
 3-21G
 ****


