%nproc=1
%NoSave
%Mem=1900MB
#P OB98/GEN NMR

erre ene a

0 1
  C     -897.680    -899.308    -895.880
  O     -897.920    -897.978    -895.430
  P     -897.400    -897.578    -893.960
  C     -895.170    -896.178    -894.340
  O     -895.800    -897.418    -893.990
  C     -894.660    -896.238    -895.800
  O     -895.730    -896.528    -896.710
  C     -893.950    -894.998    -896.260
  O     -892.550    -894.978    -895.940
  C     -894.230    -895.038    -897.780
  O     -893.290    -895.958    -898.430
  C     -895.650    -895.598    -897.810
  N     -896.790    -894.608    -897.720
  C     -897.290    -893.998    -898.900
  O     -896.890    -894.228    -900.000
  N     -898.360    -893.138    -898.690
  C     -899.030    -892.928    -897.520
  O     -900.000    -892.178    -897.420
  C     -898.550    -893.698    -896.350
  C     -897.510    -894.448    -896.510
  O     -897.600    -898.938    -893.100
  O     -898.100    -896.428    -893.340
  H     -893.380    -896.798    -897.910
  H     -898.260    -898.798    -892.390
  H     -898.690    -892.628    -899.490
  H     -899.110    -893.588    -895.430
  H     -897.120    -895.048    -895.640
  H     -895.850    -896.138    -898.780
  H     -894.020    -894.048    -898.250
  H     -894.480    -894.098    -895.860
  H     -893.930    -897.118    -895.890
  H     -894.330    -895.968    -893.680
  H     -895.900    -895.368    -894.230
  P     -892.090    -894.288    -894.580
  C     -891.500    -896.268    -893.000
  O     -892.520    -895.298    -893.390
  O     -892.540    -892.838    -894.350
  O     -890.520    -894.408    -894.620
  H     -890.090    -893.588    -894.970
  H     -891.830    -896.758    -892.090
  H     -890.570    -895.728    -892.810
  H     -891.360    -896.988    -893.820
  H     -898.078    -899.428    -896.866
  H     -898.155    -900.000    -895.217
  H     -896.627    -899.495    -895.895

 3  4  5  6  7  8  9  10  11  12  13  23  28  29  30  31  32 0
 6-311+G(2d,p)
 ****
 33  34 0
 6-311+G(2d,p)
 ****
 1  2  14  15  16  17  18  19  20  21  22  24  25  26  27 0
 3-21G
 ****
 35  36  37  38  39  40  41  42  43  44  45 0
 3-21G
 ****


