%nproc=1
%NoSave
%Mem=1900MB
#P OB98/GEN NMR

erre ene a

0 1
  C     -114.520      19.539     -31.467
  O     -114.519      20.683     -30.633
  P     -114.446      22.146     -31.279
  C     -112.232      22.612     -29.991
  O     -112.910      22.604     -31.229
  C     -110.840      23.241     -30.126
  O     -110.052      22.395     -30.999
  C     -110.822      24.627     -30.762
  O     -109.575      25.253     -30.451
  C     -110.868      24.293     -32.237
  O     -110.412      25.371     -33.049
  C     -110.019      22.998     -32.314
  N     -110.551      22.061     -33.321
  C     -109.631      21.229     -33.954
  O     -108.438      21.198     -33.653
  N     -110.112      20.496     -35.003
  C     -111.385      20.556     -35.491
  O     -111.715      20.141     -36.596
  C     -112.357      21.261     -34.640
  C     -111.899      21.994     -33.622
  O     -115.154      23.058     -30.172
  O     -115.102      22.278     -32.611
  H     -110.966      26.154     -32.820
  H     -116.091      23.201     -30.401
  H     -109.416      20.003     -35.552
  H     -113.403      21.208     -34.909
  H     -112.588      22.568     -33.008
  H     -108.977      23.218     -32.575
  H     -111.906      24.079     -32.523
  H     -111.654      25.269     -30.462
  H     -110.353      23.260     -29.143
  H     -112.158      21.587     -29.613
  H     -112.807      23.174     -29.246
  P     -109.610      26.754     -29.884
  C     -109.096      27.644     -32.239
  O     -109.973      27.698     -31.131
  O     -108.428      27.177     -29.080
  O     -110.960      26.781     -29.019
  H     -110.935      27.530     -28.395
  H     -109.661      27.872     -33.147
  H     -108.641      26.654     -32.343
  H     -108.310      28.393     -32.113
  H     -114.573      18.657     -30.863
  H     -113.621      19.520     -32.048
  H     -115.366      19.575     -32.121

 3  4  5  6  7  8  9  10  11  12  13  23  28  29  30  31  32 0
 6-311+G(2d,p)
 ****
 33  34 0
 6-311+G(2d,p)
 ****
 1  2  14  15  16  17  18  19  20  21  22  24  25  26  27 0
 3-21G
 ****
 35  36  37  38  39  40  41  42  43  44  45 0
 3-21G
 ****


