%nproc=1
%NoSave
%Mem=1900MB
#P OB98/GEN NMR

erre ene a

0 1
  C     -111.382    -412.042     293.410
  O     -112.346    -413.065     293.579
  H     -111.836    -411.186     292.904
  H     -111.028    -411.726     294.396
  H     -110.530    -412.409     292.831
  P     -112.867    -413.798     292.247
  C     -113.429    -416.061     293.398
  O     -113.925    -414.903     292.742
  C     -114.459    -416.590     294.403
  O     -114.765    -415.539     295.356
  C     -115.780    -417.026     293.752
  O     -116.260    -418.199     294.417
  C     -116.711    -415.856     294.025
  O     -118.080    -416.247     294.021
  C     -116.196    -415.369     295.379
  N     -119.479    -412.247     297.739
  C     -119.328    -413.588     297.769
  N     -118.423    -414.346     297.111
  C     -117.583    -413.567     296.400
  C     -117.612    -412.185     296.275
  C     -118.628    -411.514     296.978
  N     -118.809    -410.153     296.925
  N     -116.604    -411.758     295.427
  C     -115.982    -412.861     295.054
  N     -116.542    -413.977     295.612
  O     -111.588    -414.667     291.817
  O     -113.332    -412.899     291.150
  H     -118.629    -415.443     294.130
  H     -110.944    -414.091     291.358
  H     -120.035    -414.130     298.397
  H     -115.137    -412.905     294.379
  H     -116.605    -415.952     296.215
  H     -116.573    -415.086     293.252
  H     -115.676    -417.230     292.684
  H     -114.005    -417.411     294.970
  H     -112.502    -415.799     293.927
  H     -119.595    -409.761     297.417
  H     -118.221    -409.600     296.315
  H     -113.209    -416.835     292.653
  P     -116.478    -419.507     293.511
  C     -116.582    -420.994     295.630
  O     -117.197    -420.633     294.402
  O     -114.993    -420.071     293.306
  O     -117.140    -419.218     292.197
  H     -114.828    -420.246     292.360
  H     -117.166    -421.749     296.113
  H     -116.517    -420.134     296.263
  H     -115.599    -421.371     295.439

 6  7  8  9  10  11  12  13  14  15  25  28  32  33  34  35 0
 6-311+G(2d,p)
 ****
 36  39  40 0
 6-311+G(2d,p)
 ****
 1  2  3  4  5  16  17  18  19  20  21  22  23  24 0
 3-21G
 ****
 26  27  29  30  31  37  38  41  42  43  44  45  46  47 0
 3-21G
 ****
 48 0
 3-21G
 ****


