%nproc=1
%NoSave
%Mem=1900MB
#P OB98/GEN NMR

erre ene a

0 1
  C     -538.695      30.436    -159.140
  O     -537.461      29.875    -159.598
  P     -537.022      28.439    -159.054
  C     -535.588      29.254    -156.983
  O     -536.678      28.518    -157.499
  C     -535.621      29.214    -155.445
  O     -536.383      28.068    -154.998
  C     -534.245      29.121    -154.810
  O     -533.657      30.391    -154.617
  C     -534.541      28.399    -153.507
  O     -535.111      29.312    -152.548
  C     -535.614      27.372    -153.965
  N     -535.149      26.079    -154.524
  C     -536.016      24.988    -154.542
  O     -537.167      25.015    -154.122
  N     -535.523      23.832    -155.087
  C     -534.337      23.698    -155.751
  O     -533.972      22.647    -156.280
  C     -533.522      24.921    -155.837
  C     -533.942      26.023    -155.222
  O     -535.592      28.188    -159.742
  O     -537.989      27.338    -159.371
  H     -535.977      29.588    -152.891
  H     -535.639      27.435    -160.362
  H     -536.100      23.019    -155.047
  H     -532.596      24.871    -156.397
  H     -533.351      26.935    -155.271
  H     -536.302      27.138    -153.149
  H     -533.632      27.995    -153.051
  H     -533.596      28.473    -155.413
  H     -536.146      30.122    -155.093
  H     -535.630      30.289    -157.323
  H     -534.652      28.824    -157.351
  P     -532.649      30.974    -155.733
  C     -530.580      31.310    -154.275
  O     -531.185      30.510    -155.268
  O     -532.803      32.424    -156.064
  O     -532.918      30.023    -157.005
  H     -533.557      30.462    -157.630
  H     -529.652      30.822    -153.937
  H     -531.236      31.435    -153.418
  H     -530.306      32.298    -154.693
  H     -538.842      31.393    -159.595
  H     -538.663      30.547    -158.076
  H     -539.503      29.787    -159.407

 3  4  5  6  7  8  9  10  11  12  13  23  28  29  30  31  32 0
 6-311+G(2d,p)
 ****
 33  34 0
 6-311+G(2d,p)
 ****
 1  2  14  15  16  17  18  19  20  21  22  24  25  26  27 0
 3-21G
 ****
 35  36  37  38  39  40  41  42  43  44  45 0
 3-21G
 ****


