%nproc=1
%NoSave
%Mem=1900MB
#P OB98/GEN NMR

erre ene a

0 1
  C      365.145     295.025    -891.702
  O      363.927     295.273    -892.372
  H      365.390     295.883    -891.082
  H      365.955     294.887    -892.442
  H      365.061     294.136    -891.062
  P      363.294     294.052    -893.202
  C      360.797     293.551    -893.882
  O      361.796     294.516    -893.582
  C      359.459     294.247    -894.142
  O      358.847     294.592    -892.852
  C      359.558     295.518    -894.972
  O      358.405     295.628    -895.812
  C      359.519     296.625    -893.922
  O      359.093     297.863    -894.462
  C      358.573     296.007    -892.882
  N      358.721     296.600    -891.552
  C      357.785     297.582    -891.182
  O      356.884     297.890    -891.972
  N      357.912     298.193    -889.952
  C      358.917     297.903    -889.192
  N      359.003     298.566    -888.002
  C      359.960     296.923    -889.572
  C      359.797     296.307    -890.722
  O      363.073     292.945    -892.062
  O      364.141     293.599    -894.352
  H      359.160     298.558    -893.772
  H      362.677     293.307    -891.252
  H      360.807     296.726    -888.892
  H      360.511     295.551    -891.072
  H      357.520     296.134    -893.192
  H      360.534     296.774    -893.472
  H      360.478     295.557    -895.572
  H      358.780     293.519    -894.622
  H      358.283     299.249    -887.802
  H      360.684     292.845    -893.032
  H      359.771     298.479    -887.372
  H      361.112     292.979    -894.762
  P      358.624     295.757    -897.402
  C      357.169     294.623    -899.232
  O      357.211     295.538    -898.132
  O      359.773     295.015    -897.982
  O      358.833     297.349    -897.592
  H      359.546     297.479    -898.262
  H      356.173     294.576    -899.619
  H      357.468     293.651    -898.899
  H      357.835     294.958    -900.000

 6  7  8  9  10  11  12  13  14  15  16  26  30  31  32  33  35 0
 6-311+G(2d,p)
 ****
 37  38 0
 6-311+G(2d,p)
 ****
 1  2  3  4  5  17  18  19  20  21  22  23  24  25 0
 3-21G
 ****
 27  28  29  34  36  39  40  41  42  43  44  45  46 0
 3-21G
 ****


