%nproc=1
%NoSave
%Mem=1900MB
#P OB98/GEN NMR

erre ene a

0 1
  C      359.799     263.713     348.020
  O      359.069     262.819     347.204
  H      359.117     264.486     348.389
  H      360.586     264.191     347.431
  H      360.234     263.189     348.874
  P      359.838     261.494     346.721
  C      360.670     262.650     344.551
  O      361.023     261.978     345.750
  C      361.889     263.365     343.968
  O      362.344     264.402     344.869
  C      363.091     262.456     343.721
  O      362.985     261.757     342.492
  C      364.213     263.481     343.677
  O      364.202     264.159     342.399
  C      363.801     264.451     344.789
  N      367.663     265.220     347.982
  C      367.454     265.720     346.714
  N      368.406     266.534     346.213
  N      366.396     265.446     345.990
  C      365.529     264.609     346.610
  C      365.630     264.046     347.861
  C      366.799     264.368     348.657
  O      367.027     263.973     349.795
  N      364.546     263.263     348.152
  C      363.801     263.324     347.072
  N      364.354     264.127     346.094
  O      358.797     260.804     345.713
  O      360.236     260.553     347.812
  H      364.436     263.488     341.729
  H      358.865     259.832     345.811
  H      368.502     265.454     348.491
  H      362.856     262.815     346.936
  H      364.083     265.486     344.573
  H      365.197     263.032     343.793
  H      369.268     266.750     346.692
  H      363.259     261.769     344.569
  H      368.258     266.940     345.295
  H      361.578     263.858     343.034
  H      359.889     263.387     344.768
  H      360.283     261.917     343.832
  P      363.343     260.187     342.486
  C      365.817     260.906     342.157
  O      364.894     260.099     342.888
  O      363.336     259.814     340.926
  O      362.407     259.327     343.273
  H      363.182     258.861     340.816
  H      366.806     260.745     342.532
  H      365.556     261.938     342.270
  H      365.780     260.640     341.121

 6  7  8  9  10  11  12  13  14  15  26  29  33  34 0
 6-311+G(2d,p)
 ****
 36  38  39  40  41 0
 6-311+G(2d,p)
 ****
 1  2  3  4  5  16  17  18  19  20  21  22  23  24  25 0
 3-21G
 ****
 27  28  30  31  32  35  37  42  43  44  45  46  47 0
 3-21G
 ****
 48  49 0
 3-21G
 ****


