%nproc=1
%NoSave
%Mem=1900MB
#P OB98/GEN NMR

erre ene a

0 1
  C     1392.914     803.402    -446.796
  O     1391.627     802.886    -446.523
  H     1392.857     804.497    -446.826
  H     1393.278     803.052    -447.767
  H     1393.620     803.111    -446.017
  P     1391.430     801.301    -446.510
  C     1390.167     799.589    -448.009
  O     1390.677     800.917    -447.885
  C     1389.012     799.549    -449.001
  O     1387.824     800.098    -448.392
  C     1389.237     800.369    -450.266
  O     1390.113     799.684    -451.148
  C     1387.802     800.509    -450.778
  O     1387.369     799.302    -451.424
  C     1387.041     800.723    -449.440
  N     1386.795     802.132    -449.151
  C     1385.855     802.776    -449.968
  O     1385.313     802.189    -450.907
  N     1385.594     804.106    -449.720
  C     1386.142     804.700    -448.743
  N     1385.814     806.037    -448.536
  C     1387.079     804.066    -447.801
  C     1387.370     802.797    -448.080
  O     1390.794     800.707    -445.283
  O     1392.916     800.721    -446.741
  H     1388.081     799.027    -452.014
  H     1393.339     800.529    -445.888
  H     1387.524     804.602    -446.991
  H     1388.055     802.233    -447.442
  H     1386.064     800.203    -449.472
  H     1387.703     801.318    -451.490
  H     1389.615     801.359    -450.026
  H     1388.797     798.510    -449.228
  H     1385.156     806.430    -449.209
  H     1389.840     799.290    -447.019
  H     1386.064     806.559    -447.719
  H     1390.970     798.905    -448.334
  P     1391.016     800.477    -452.210
  C     1390.782     801.076    -454.706
  O     1390.126     800.612    -453.516
  O     1392.384     799.923    -452.405
  O     1391.016     801.983    -451.651
  H     1391.646     802.063    -450.875
  H     1390.075     801.122    -455.508
  H     1391.571     800.401    -454.964
  H     1391.188     802.051    -454.532

 6  7  8  9  10  11  12  13  14  15  16  26  30  31  32  33  35 0
 6-311+G(2d,p)
 ****
 37  38 0
 6-311+G(2d,p)
 ****
 1  2  3  4  5  17  18  19  20  21  22  23  24  25 0
 3-21G
 ****
 27  28  29  34  36  39  40  41  42  43  44  45  46 0
 3-21G
 ****


