%nproc=1
%NoSave
%Mem=1900MB
#P OB98/GEN NMR

erre ene a

0 1
  C     -211.465    -459.697    -193.430
  O     -210.555    -460.487    -194.211
  P     -209.014    -460.507    -193.782
  C     -207.821    -459.200    -195.689
  O     -208.124    -460.462    -195.114
  C     -207.839    -459.293    -197.217
  O     -209.123    -458.908    -197.760
  C     -206.813    -458.396    -197.896
  O     -205.527    -458.997    -197.930
  C     -207.384    -458.317    -199.306
  O     -207.035    -459.501    -200.043
  C     -208.894    -458.268    -199.041
  N     -209.943    -454.182    -201.836
  C     -209.415    -455.403    -202.209
  N     -209.134    -455.561    -203.517
  N     -209.185    -456.379    -201.368
  C     -209.533    -456.088    -200.097
  C     -210.062    -454.915    -199.604
  C     -210.298    -453.837    -200.534
  O     -210.750    -452.728    -200.263
  N     -210.275    -454.993    -198.253
  C     -209.899    -456.217    -197.928
  N     -209.421    -456.913    -199.011
  O     -208.806    -462.011    -193.270
  O     -208.655    -459.508    -192.728
  H     -207.689    -459.587    -200.766
  H     -208.094    -462.036    -192.602
  H     -210.091    -453.459    -202.520
  H     -209.949    -456.632    -196.930
  H     -209.467    -458.821    -199.795
  H     -206.984    -457.465    -199.868
  H     -209.330    -454.867    -204.224
  H     -206.794    -457.399    -197.441
  H     -208.777    -456.465    -203.815
  H     -207.644    -460.340    -197.497
  H     -206.844    -458.848    -195.349
  H     -208.542    -458.460    -195.323
  P     -204.254    -458.069    -197.630
  C     -203.034    -458.481    -199.881
  O     -203.049    -458.675    -198.483
  O     -203.893    -458.445    -196.116
  O     -204.499    -456.606    -197.792
  H     -203.510    -457.671    -195.661
  H     -202.074    -458.812    -200.274
  H     -203.167    -457.421    -200.129
  H     -203.829    -459.067    -200.349
  H     -212.451    -459.783    -193.836
  H     -211.158    -458.672    -193.453
  H     -211.464    -460.047    -192.419

 3  4  5  6  7  8  9  10  11  12  23  26  30  31 0
 6-311+G(2d,p)
 ****
 33  35  36  37  38 0
 6-311+G(2d,p)
 ****
 1  2  13  14  15  16  17  18  19  20  21  22  24  25 0
 3-21G
 ****
 27  28  29  32  34  39  40  41  42  43  44  45  46  47  48  49 0
 3-21G
 ****


