%nproc=1
%NoSave
%Mem=1900MB
#P OB98/GEN NMR

erre ene a

0 1
  C      127.010      19.765       1.982
  O      128.094      19.084       2.585
  P      129.533      19.772       2.694
  C      129.866      18.933       0.297
  O      130.068      20.014       1.198
  C      130.523      19.207      -1.055
  O      129.938      20.406      -1.632
  C      132.042      19.422      -0.998
  O      132.580      18.888      -2.212
  C      132.166      20.936      -1.009
  O      133.449      21.383      -1.429
  C      131.027      21.296      -1.956
  N      132.250      26.180      -2.834
  C      132.925      25.032      -3.050
  N      132.542      23.771      -2.765
  C      131.324      23.761      -2.200
  C      130.529      24.852      -1.889
  C      131.030      26.116      -2.248
  N      130.340      27.294      -2.066
  N      129.369      24.438      -1.261
  C      129.466      23.126      -1.198
  N      130.599      22.669      -1.810
  O      130.502      19.085       3.597
  O      129.216      21.254       3.208
  H      134.127      20.883      -0.936
  H      129.469      21.339       4.149
  H      133.898      25.139      -3.520
  H      128.753      22.465      -0.725
  H      131.296      21.134      -3.006
  H      131.986      21.327      -0.001
  H      132.523      18.966      -0.128
  H      130.279      18.375      -1.728
  H      128.788      18.808       0.156
  H      130.734      28.124      -2.479
  H      129.339      27.253      -1.882
  H      130.266      18.009       0.730
  P      133.940      18.042      -2.179
  C      135.306      19.961      -3.179
  O      135.134      19.103      -2.066
  O      134.087      17.026      -3.261
  O      133.921      17.362      -0.727
  H      134.551      16.617      -0.707
  H      135.858      19.434      -3.961
  H      135.881      20.837      -2.865
  H      134.342      20.292      -3.575
  H      126.140      19.142       2.006
  H      127.255      19.997       0.967
  H      126.815      20.671       2.518

 3  4  5  6  7  8  9  10  11  12  22  25  29  30  31  32 0
 6-311+G(2d,p)
 ****
 33  36  37 0
 6-311+G(2d,p)
 ****
 1  2  13  14  15  16  17  18  19  20  21  23  24  26 0
 3-21G
 ****
 27  28  34  35  38  39  40  41  42  43  44  45  46  47  48 0
 3-21G
 ****


