%nproc=1
%NoSave
%Mem=1900MB
#P OB98/GEN NMR

erre ene a

0 1
  C      289.972      51.671      28.589
  O      291.342      51.563      28.990
  P      291.898      52.769      29.896
  C      292.210      51.360      32.050
  O      292.838      52.133      31.038
  C      293.238      50.505      32.790
  O      293.512      49.272      32.061
  C      294.591      51.215      33.025
  O      295.084      50.766      34.313
  C      295.437      50.656      31.900
  O      296.829      50.852      32.072
  C      294.951      49.204      31.903
  N      297.602      45.227      30.083
  C      297.467      45.723      31.338
  N      296.735      46.790      31.737
  C      296.119      47.375      30.687
  C      296.176      46.979      29.356
  C      296.970      45.850      29.058
  N      297.140      45.364      27.795
  N      295.423      47.845      28.568
  C      294.982      48.765      29.411
  N      295.308      48.472      30.714
  O      290.608      53.277      30.699
  O      292.542      53.872      29.098
  H      297.099      50.482      32.945
  H      290.224      54.069      30.271
  H      297.994      45.188      32.113
  H      294.429      49.652      29.132
  H      295.358      48.642      32.753
  H      295.157      51.149      30.954
  H      294.523      52.309      33.033
  H      292.802      50.209      33.759
  H      291.447      50.718      31.613
  H      297.732      44.554      27.675
  H      296.692      45.802      26.998
  H      291.675      52.043      32.740
  P      295.266      51.846      35.479
  C      293.545      50.680      36.996
  O      294.909      51.029      36.825
  O      293.925      52.715      35.276
  O      296.526      52.636      35.467
  H      293.133      52.147      35.220
  H      293.462      50.060      37.888
  H      293.195      50.099      36.134
  H      292.933      51.587      37.110
  H      289.707      50.822      27.994
  H      289.838      52.564      28.016
  H      289.348      51.707      29.457

 3  4  5  6  7  8  9  10  11  12  22  25  29  30  31  32 0
 6-311+G(2d,p)
 ****
 33  36  37 0
 6-311+G(2d,p)
 ****
 1  2  13  14  15  16  17  18  19  20  21  23  24  26 0
 3-21G
 ****
 27  28  34  35  38  39  40  41  42  43  44  45  46  47  48 0
 3-21G
 ****


