%nproc=1
%NoSave
%Mem=1900MB
#P OB98/GEN NMR

erre ene a

0 1
  C        9.329     -39.850    -113.833
  O        8.717     -40.044    -115.093
  P        8.052     -38.805    -115.856
  C        5.988     -37.316    -115.505
  O        6.590     -38.578    -115.240
  C        4.747     -37.127    -114.635
  O        5.086     -37.263    -113.240
  C        4.100     -35.754    -114.768
  O        3.360     -35.658    -115.969
  C        3.262     -35.700    -113.496
  O        2.023     -36.406    -113.676
  C        4.160     -36.440    -112.494
  N        3.915     -33.704    -108.197
  C        2.973     -34.377    -108.891
  N        3.109     -35.051    -110.053
  C        4.372     -34.964    -110.502
  C        5.432     -34.284    -109.922
  C        5.173     -33.649    -108.697
  N        6.139     -33.012    -107.949
  N        6.565     -34.402    -110.705
  C        6.192     -35.129    -111.737
  N        4.895     -35.544    -111.625
  O        8.107     -38.868    -117.346
  O        8.870     -37.541    -115.313
  H        1.554     -35.984    -114.420
  H        9.314     -37.097    -116.061
  H        1.980     -34.382    -108.451
  H        6.823     -35.394    -112.575
  H        3.583     -37.116    -111.853
  H        3.013     -34.677    -113.200
  H        4.869     -34.974    -114.724
  H        4.029     -37.918    -114.888
  H        5.708     -37.284    -116.562
  H        5.878     -32.718    -107.021
  H        7.115     -33.220    -108.146
  H        6.713     -36.520    -115.308
  P        3.081     -34.223    -116.620
  C        2.086     -32.016    -115.773
  O        2.151     -33.417    -115.593
  O        2.606     -34.236    -118.035
  O        4.489     -33.470    -116.488
  H        4.600     -32.856    -117.237
  H        2.989     -31.552    -115.368
  H        1.217     -31.633    -115.235
  H        1.988     -31.763    -116.833
  H        9.716     -40.782    -113.477
  H        8.606     -39.476    -113.139
  H       10.128     -39.145    -113.929

 3  4  5  6  7  8  9  10  11  12  22  25  29  30  31  32 0
 6-311+G(2d,p)
 ****
 33  36  37 0
 6-311+G(2d,p)
 ****
 1  2  13  14  15  16  17  18  19  20  21  23  24  26 0
 3-21G
 ****
 27  28  34  35  38  39  40  41  42  43  44  45  46  47  48 0
 3-21G
 ****


