%nproc=1
%NoSave
%Mem=1900MB
#P OB98/GEN NMR

erre ene a

0 1
  C      307.890    -363.437    -223.581
  O      306.522    -363.071    -223.716
  P      306.172    -361.539    -224.022
  C      306.081    -360.803    -221.537
  O      305.367    -360.980    -222.751
  C      305.129    -360.736    -220.340
  O      304.295    -359.543    -220.473
  C      304.178    -361.930    -220.201
  O      303.959    -362.142    -218.807
  C      302.905    -361.436    -220.841
  O      301.756    -362.182    -220.426
  C      302.922    -359.978    -220.388
  N      298.189    -358.180    -221.122
  C      298.698    -358.989    -220.169
  N      299.975    -359.421    -220.038
  C      300.747    -358.926    -221.035
  C      300.349    -358.127    -222.089
  C      299.000    -357.741    -222.113
  N      298.467    -356.910    -223.073
  N      301.415    -357.857    -222.919
  C      302.441    -358.495    -222.381
  N      302.091    -359.135    -221.219
  O      305.054    -361.652    -225.157
  O      307.319    -360.698    -224.469
  H      300.965    -361.764    -220.816
  H      305.399    -361.313    -226.010
  H      298.000    -359.327    -219.403
  H      303.444    -358.512    -222.781
  H      302.585    -359.864    -219.352
  H      302.973    -361.517    -221.930
  H      304.557    -362.858    -220.667
  H      305.724    -360.610    -219.429
  H      306.637    -359.864    -221.593
  H      297.535    -356.563    -222.949
  H      299.099    -356.429    -223.703
  H      306.785    -361.629    -221.401
  P      303.915    -363.661    -218.293
  C      301.433    -363.260    -217.669
  O      302.694    -363.780    -217.271
  O      305.213    -363.767    -217.335
  O      303.953    -364.677    -219.386
  H      305.533    -364.680    -217.328
  H      300.638    -363.872    -217.222
  H      301.314    -363.258    -218.754
  H      301.331    -362.235    -217.295
  H      307.960    -364.486    -223.380
  H      308.328    -362.889    -222.773
  H      308.411    -363.212    -224.488

 3  4  5  6  7  8  9  10  11  12  22  25  29  30  31  32 0
 6-311+G(2d,p)
 ****
 33  36  37 0
 6-311+G(2d,p)
 ****
 1  2  13  14  15  16  17  18  19  20  21  23  24  26 0
 3-21G
 ****
 27  28  34  35  38  39  40  41  42  43  44  45  46  47  48 0
 3-21G
 ****


