%nproc=1
%NoSave
%Mem=1900MB
#P OB98/GEN NMR

erre ene a

0 1
  C       32.855     311.515     127.339
  O       33.443     312.334     126.349
  H       33.429     311.615     128.264
  H       32.876     310.467     127.026
  H       31.826     311.828     127.525
  P       32.785     312.287     124.888
  C       34.605     310.737     123.871
  O       33.981     312.013     123.855
  C       36.048     310.866     123.395
  O       36.074     311.194     121.988
  C       36.831     311.973     124.084
  O       37.273     311.596     125.376
  C       37.977     312.168     123.104
  O       39.030     311.219     123.329
  C       37.292     311.924     121.742
  N       37.049     313.169     121.019
  C       37.736     313.314     119.819
  O       38.506     312.462     119.376
  N       37.540     314.494     119.155
  C       36.770     315.535     119.586
  O       36.694     316.597     118.980
  C       36.056     315.320     120.856
  C       36.232     314.168     121.509
  O       32.392     313.816     124.620
  O       31.616     311.372     124.749
  H       31.434     313.940     124.748
  H       39.664     311.337     122.595
  H       38.038     314.622     118.288
  H       35.430     316.123     121.223
  H       35.731     313.994     122.456
  H       37.920     311.284     121.109
  H       38.420     313.159     123.197
  H       36.238     312.894     124.122
  H       36.546     309.896     123.532
  H       34.066     310.059     123.201
  H       34.563     310.333     124.888
  P       37.542     312.746     126.460
  C       39.992     311.952     126.983
  O       38.675     312.185     127.449
  O       36.201     312.676     127.326
  O       37.838     314.078     125.861
  H       35.857     311.771     127.423
  H       40.594     311.582     127.786
  H       40.408     312.868     126.618
  H       39.968     311.231     126.193

 6  7  8  9  10  11  12  13  14  15  16  27  31  32  33  34  35 0
 6-311+G(2d,p)
 ****
 36  37 0
 6-311+G(2d,p)
 ****
 1  2  3  4  5  17  18  19  20  21  22  23  24  25 0
 3-21G
 ****
 26  28  29  30  38  39  40  41  42  43  44  45 0
 3-21G
 ****


