%nproc=1
%NoSave
%Mem=1900MB
#P OB98/GEN NMR

erre ene a

0 1
  C     -107.393      52.639     -90.961
  O     -107.082      52.360     -92.309
  P     -105.636      51.884     -92.795
  C     -104.498      53.781     -94.155
  O     -104.684      53.176     -92.880
  C     -105.454      54.957     -94.405
  O     -105.346      55.903     -93.323
  C     -105.047      55.706     -95.678
  O     -105.468      55.240     -96.944
  C     -105.364      57.169     -95.393
  O     -106.615      57.577     -95.951
  C     -105.412      57.232     -93.866
  N     -102.987      61.682     -93.860
  C     -104.213      61.361     -94.407
  N     -104.764      62.297     -95.211
  N     -104.822      60.223     -94.201
  C     -104.102      59.354     -93.454
  C     -102.886      59.563     -92.847
  C     -102.243      60.840     -93.048
  O     -101.119      61.133     -92.650
  N     -102.423      58.431     -92.228
  C     -103.338      57.521     -92.493
  N     -104.356      58.024     -93.268
  O     -105.595      50.889     -93.909
  O     -105.085      51.145     -91.469
  H     -106.618      57.330     -96.893
  H     -104.528      50.398     -91.761
  H     -102.529      62.547     -94.118
  H     -103.295      56.486     -92.180
  H     -106.363      57.659     -93.526
  H     -104.602      57.823     -95.835
  H     -104.259      63.120     -95.507
  H     -103.951      55.662     -95.732
  H     -105.573      62.031     -95.762
  H     -106.495      54.623     -94.405
  H     -104.636      53.003     -94.911
  H     -103.466      54.135     -94.243
  P     -104.793      55.580     -98.353
  C     -106.237      57.165     -99.748
  O     -105.216      57.066     -98.771
  O     -105.593      54.674     -99.403
  O     -103.328      55.298     -98.434
  H     -105.050      54.539    -100.203
  H     -106.230      58.172    -100.170
  H     -107.209      56.982     -99.280
  H     -106.080      56.440    -100.552
  H     -108.418      52.938     -90.886
  H     -106.764      53.428     -90.606
  H     -107.233      51.762     -90.369

 3  4  5  6  7  8  9  10  11  12  23  26  30  31 0
 6-311+G(2d,p)
 ****
 33  35  36  37  38 0
 6-311+G(2d,p)
 ****
 1  2  13  14  15  16  17  18  19  20  21  22  24  25 0
 3-21G
 ****
 27  28  29  32  34  39  40  41  42  43  44  45  46  47  48  49 0
 3-21G
 ****


