%nproc=1
%NoSave
%Mem=1900MB
#P OB98/GEN NMR

erre ene a

0 1
  C     -133.583     156.649     155.854
  O     -133.981     156.959     154.535
  P     -135.527     157.016     154.110
  C     -135.499     159.542     154.611
  O     -136.141     158.299     154.868
  C     -136.520     160.635     154.277
  O     -137.588     160.625     155.264
  C     -135.940     162.055     154.231
  O     -136.670     162.758     153.222
  C     -136.287     162.593     155.608
  O     -136.251     164.015     155.671
  C     -137.665     161.956     155.825
  N     -138.045     161.934     157.235
  C     -138.282     163.169     157.843
  O     -138.097     164.215     157.212
  N     -138.671     163.203     159.159
  C     -138.711     162.095     159.838
  N     -139.108     162.184     161.136
  C     -138.344     160.781     159.271
  C     -138.040     160.778     157.978
  O     -136.286     155.749     154.315
  O     -135.485     157.502     152.587
  H     -136.571     164.292     156.560
  H     -135.227     156.746     151.993
  H     -138.341     159.901     159.891
  H     -137.758     159.857     157.475
  H     -138.439     162.504     155.268
  H     -135.571     162.209     156.347
  H     -134.867     162.087     154.029
  H     -136.973     160.389     153.310
  H     -139.365     163.103     161.479
  H     -134.833     159.410     153.756
  H     -139.255     161.382     161.727
  H     -134.889     159.833     155.472
  P     -136.036     164.016     152.452
  C     -136.290     162.435     150.457
  O     -135.536     163.488     151.027
  O     -135.014     164.782     153.233
  O     -137.297     164.933     152.078
  H     -136.986     165.825     151.838
  H     -136.041     162.352     149.390
  H     -137.361     162.620     150.558
  H     -136.033     161.490     150.955
  H     -132.515     156.666     155.918
  H     -133.941     155.675     156.115
  H     -133.992     157.372     156.529

 3  4  5  6  7  8  9  10  11  12  13  23  27  28  29  30  32 0
 6-311+G(2d,p)
 ****
 34  35 0
 6-311+G(2d,p)
 ****
 1  2  14  15  16  17  18  19  20  21  22  24  25  26 0
 3-21G
 ****
 31  33  36  37  38  39  40  41  42  43  44  45  46 0
 3-21G
 ****


