%nproc=1
%NoSave
%Mem=1900MB
#P OB98/GEN NMR

erre ene a

0 1
  C     -283.271    -892.470     845.901
  O     -283.151    -893.860     845.682
  H     -283.989    -892.300     846.715
  H     -283.646    -891.970     845.007
  H     -282.310    -892.040     846.195
  P     -282.209    -894.370     844.493
  C     -281.039    -895.780     846.308
  O     -280.868    -894.940     845.174
  C     -279.971    -896.880     846.313
  O     -280.202    -897.720     845.150
  C     -278.545    -896.310     846.224
  O     -277.684    -896.800     847.248
  C     -278.143    -896.600     844.774
  O     -276.750    -896.720     844.569
  C     -278.958    -897.850     844.431
  N     -279.210    -898.020     842.995
  C     -278.615    -899.090     842.369
  O     -277.907    -899.940     842.923
  N     -278.854    -899.210     841.016
  C     -279.618    -898.360     840.272
  O     -279.798    -898.510     839.070
  C     -280.205    -897.220     840.994
  C     -279.974    -897.100     842.302
  O     -281.982    -893.390     843.384
  O     -282.941    -895.700     843.967
  H     -276.609    -896.950     843.622
  H     -283.419    -895.500     843.137
  H     -278.434    -900.000     840.552
  H     -280.795    -896.530     840.433
  H     -280.386    -896.260     842.864
  H     -278.451    -898.740     844.786
  H     -278.490    -895.760     844.156
  H     -278.537    -895.230     846.385
  H     -280.104    -897.500     847.204
  H     -282.038    -896.220     846.255
  H     -280.957    -895.180     847.218
  P     -277.625    -896.220     848.736
  C     -278.421    -898.470     849.831
  O     -278.626    -897.070     849.649
  O     -277.699    -894.730     848.854
  O     -276.157    -896.690     849.256
  H     -275.854    -895.980     849.872
  H     -279.186    -898.863     850.468
  H     -277.464    -898.635     850.279
  H     -278.460    -898.963     848.882

 6  7  8  9  10  11  12  13  14  15  16  26  31  32  33  34  35 0
 6-311+G(2d,p)
 ****
 36  37 0
 6-311+G(2d,p)
 ****
 1  2  3  4  5  17  18  19  20  21  22  23  24  25 0
 3-21G
 ****
 27  28  29  30  38  39  40  41  42  43  44  45 0
 3-21G
 ****


