%nproc=1
%NoSave
%Mem=1900MB
#P OB98/GEN NMR

erre ene a

0 1
  C      -24.920    -431.961    -241.623
  O      -24.058    -432.689    -242.494
  P      -24.253    -432.804    -244.075
  C      -26.107    -433.848    -245.613
  O      -25.447    -433.838    -244.352
  C      -26.591    -435.254    -246.030
  O      -25.439    -436.117    -246.233
  C      -27.417    -435.887    -244.914
  O      -28.794    -435.583    -244.783
  C      -27.120    -437.378    -245.016
  O      -28.083    -438.077    -245.806
  C      -25.746    -437.418    -245.688
  N      -23.718    -441.225    -242.938
  C      -24.886    -441.204    -243.669
  N      -25.642    -442.326    -243.631
  N      -25.287    -440.173    -244.366
  C      -24.484    -439.095    -244.249
  C      -23.310    -438.981    -243.538
  C      -22.842    -440.149    -242.817
  O      -21.806    -440.226    -242.162
  N      -22.779    -437.722    -243.636
  C      -23.641    -437.064    -244.385
  N      -24.693    -437.856    -244.788
  O      -23.004    -432.992    -244.869
  O      -24.883    -431.376    -244.480
  H      -28.004    -439.028    -245.601
  H      -24.554    -431.171    -245.379
  H      -23.443    -442.053    -242.439
  H      -23.548    -436.020    -244.670
  H      -25.741    -438.120    -246.536
  H      -27.139    -437.844    -244.019
  H      -25.454    -443.105    -243.017
  H      -26.969    -435.566    -243.961
  H      -26.598    -442.238    -243.980
  H      -27.113    -435.213    -246.987
  H      -25.398    -433.454    -246.344
  H      -26.956    -433.156    -245.595
  P      -29.424    -434.405    -243.897
  C      -29.240    -433.533    -241.494
  O      -28.780    -434.487    -242.439
  O      -30.934    -434.883    -243.638
  O      -29.395    -433.051    -244.528
  H      -31.476    -434.137    -243.336
  H      -28.532    -433.482    -240.667
  H      -30.218    -433.844    -241.108
  H      -29.327    -432.546    -241.952
  H      -24.565    -432.046    -240.617
  H      -25.911    -432.360    -241.687
  H      -24.931    -430.931    -241.911

 3  4  5  6  7  8  9  10  11  12  23  26  30  31 0
 6-311+G(2d,p)
 ****
 33  35  36  37  38 0
 6-311+G(2d,p)
 ****
 1  2  13  14  15  16  17  18  19  20  21  22  24  25 0
 3-21G
 ****
 27  28  29  32  34  39  40  41  42  43  44  45  46  47  48  49 0
 3-21G
 ****


