%nproc=1
%NoSave
%Mem=1900MB
#P OB98/GEN NMR

erre ene a

0 1
  C      388.253    -756.870    -734.791
  O      389.126    -756.092    -733.990
  H      387.507    -757.335    -734.147
  H      388.815    -757.654    -735.304
  H      387.743    -756.234    -735.520
  P      390.254    -755.246    -734.759
  C      388.976    -753.022    -734.377
  O      389.524    -753.930    -735.320
  C      388.159    -751.934    -735.075
  O      387.085    -752.564    -735.844
  C      387.511    -750.917    -734.125
  O      387.508    -749.639    -734.768
  C      386.067    -751.406    -734.039
  O      385.171    -750.377    -733.624
  C      385.867    -751.892    -735.477
  N      381.646    -752.673    -738.112
  C      382.642    -751.729    -738.269
  N      382.497    -750.859    -739.295
  N      383.692    -751.646    -737.500
  C      383.729    -752.604    -736.537
  C      382.810    -753.588    -736.271
  C      381.636    -753.651    -737.117
  O      380.713    -754.454    -737.011
  N      383.195    -754.339    -735.189
  C      384.342    -753.814    -734.813
  N      384.712    -752.761    -735.604
  O      390.518    -756.121    -736.077
  O      391.508    -755.004    -733.989
  H      385.098    -749.737    -734.356
  H      391.267    -756.732    -735.931
  H      380.853    -752.680    -738.724
  H      384.951    -754.165    -733.972
  H      385.713    -751.070    -736.180
  H      385.991    -752.242    -733.328
  H      381.732    -750.892    -739.952
  H      387.995    -750.837    -733.140
  H      383.240    -750.183    -739.451
  H      388.811    -751.436    -735.804
  H      389.792    -752.553    -733.817
  H      388.344    -753.574    -733.678
  P      388.878    -748.800    -734.771
  C      389.593    -749.627    -737.129
  O      389.913    -749.522    -735.754
  O      389.481    -749.096    -733.318
  O      388.691    -747.326    -734.997
  H      390.035    -748.354    -733.028
  H      390.384    -750.132    -737.642
  H      389.469    -748.648    -737.542
  H      388.684    -750.180    -737.242

 6  7  8  9  10  11  12  13  14  15  26  29  33  34 0
 6-311+G(2d,p)
 ****
 36  38  39  40  41 0
 6-311+G(2d,p)
 ****
 1  2  3  4  5  16  17  18  19  20  21  22  23  24  25 0
 3-21G
 ****
 27  28  30  31  32  35  37  42  43  44  45  46  47 0
 3-21G
 ****
 48  49 0
 3-21G
 ****


