%nproc=1
%NoSave
%Mem=1900MB
#P OB98/GEN NMR

erre ene a

0 1
  C     -417.834     375.471       9.943
  O     -419.076     374.909       9.484
  P     -419.503     374.854       7.938
  C     -417.895     373.101       6.922
  O     -419.210     373.374       7.389
  C     -417.940     372.208       5.672
  O     -416.621     372.120       5.072
  C     -418.331     370.759       5.921
  O     -419.707     370.610       6.196
  C     -417.874     370.097       4.625
  O     -418.867     370.227       3.597
  C     -416.623     370.925       4.256
  N     -415.381     370.185       4.410
  C     -415.160     369.140       3.512
  O     -416.021     368.830       2.695
  N     -413.960     368.464       3.577
  C     -413.117     368.740       4.518
  N     -411.944     368.042       4.525
  C     -413.379     369.734       5.572
  C     -414.514     370.417       5.459
  O     -418.897     375.934       7.102
  O     -421.102     374.954       7.937
  H     -421.403     375.338       7.095
  H     -419.679     369.804       3.940
  H     -412.656     369.902       6.369
  H     -414.778     371.185       6.178
  H     -416.693     371.287       3.222
  H     -417.671     369.028       4.748
  H     -417.739     370.368       6.761
  H     -418.625     372.669       4.943
  H     -411.790     367.376       3.783
  H     -417.344     372.574       7.709
  H     -411.210     368.200       5.199
  H     -417.383     374.045       6.707
  P     -420.119     369.542       7.319
  C     -418.758     370.393       9.361
  O     -420.021     370.268       8.741
  O     -418.889     368.512       7.328
  O     -421.410     368.838       7.059
  H     -419.221     367.604       7.449
  H     -418.767     371.269      10.010
  H     -417.954     370.504       8.619
  H     -418.557     369.502       9.972
  H     -417.779     375.392      11.009
  H     -417.782     376.501       9.659
  H     -417.017     374.938       9.503

 3  4  5  6  7  8  9  10  11  12  13  24  27  28  29  30  32 0
 6-311+G(2d,p)
 ****
 34  35 0
 6-311+G(2d,p)
 ****
 1  2  14  15  16  17  18  19  20  21  22  23  25  26 0
 3-21G
 ****
 31  33  36  37  38  39  40  41  42  43  44  45  46 0
 3-21G
 ****


