%nproc=1
%NoSave
%Mem=1900MB
#P OB98/GEN NMR

erre ene a

0 1
  C      549.371    -707.595    -704.502
  O      549.006    -708.446    -705.568
  H      548.829    -707.903    -703.596
  H      549.109    -706.558    -704.732
  H      550.445    -707.663    -704.311
  P      549.617    -708.084    -707.010
  C      550.622    -710.489    -706.784
  O      549.996    -709.524    -707.629
  C      550.168    -711.890    -707.192
  O      548.827    -712.146    -706.736
  C      550.148    -712.130    -708.691
  O      551.439    -712.377    -709.231
  C      549.252    -713.358    -708.772
  O      550.008    -714.522    -708.360
  C      548.171    -713.003    -707.719
  N      547.018    -712.327    -708.307
  C      545.935    -713.145    -708.667
  O      545.980    -714.367    -708.506
  N      544.832    -712.557    -709.239
  C      544.799    -711.266    -709.417
  N      543.676    -710.744    -710.010
  C      545.899    -710.379    -709.030
  C      546.966    -710.955    -708.483
  O      551.055    -707.462    -706.667
  O      548.766    -707.224    -707.891
  H      550.778    -714.586    -708.959
  H      551.570    -707.327    -707.503
  H      545.818    -709.304    -709.216
  H      547.814    -710.371    -708.180
  H      547.824    -713.899    -707.188
  H      548.876    -713.557    -709.769
  H      549.659    -711.304    -709.227
  H      550.821    -712.624    -706.672
  H      542.968    -711.398    -710.313
  H      550.329    -710.281    -705.745
  H      543.631    -709.789    -710.351
  H      551.703    -710.417    -706.869
  P      551.796    -711.701    -710.655
  C      554.265    -711.151    -710.044
  O      553.378    -711.884    -710.876
  O      551.647    -710.127    -710.366
  O      550.938    -712.150    -711.795
  H      551.241    -709.668    -711.114
  H      555.276    -711.379    -710.312
  H      554.098    -711.419    -709.022
  H      554.090    -710.103    -710.172

 6  7  8  9  10  11  12  13  14  15  16  26  30  31  32  33  35 0
 6-311+G(2d,p)
 ****
 37  38 0
 6-311+G(2d,p)
 ****
 1  2  3  4  5  17  18  19  20  21  22  23  24  25 0
 3-21G
 ****
 27  28  29  34  36  39  40  41  42  43  44  45  46 0
 3-21G
 ****


