%nproc=1
%NoSave
%Mem=1900MB
#P OB98/GEN NMR

erre ene a

0 1
  C      172.946     -30.140       6.337
  O      172.280     -31.381       6.226
  H      173.837     -30.278       6.958
  H      172.297     -29.404       6.818
  H      173.258     -29.775       5.355
  P      171.029     -31.498       5.230
  C      168.796     -30.244       4.926
  O      169.890     -30.520       5.793
  C      167.478     -30.494       5.654
  O      167.280     -31.913       5.845
  C      167.422     -29.887       7.050
  O      167.228     -28.485       7.001
  C      166.277     -30.677       7.661
  O      165.009     -30.133       7.274
  C      166.483     -32.077       7.040
  N      167.119     -33.004       7.975
  C      166.329     -33.446       9.033
  O      165.159     -33.107       9.196
  N      166.956     -34.254       9.945
  C      168.293     -34.536       9.974
  O      168.851     -35.052      10.938
  C      169.062     -34.095       8.801
  C      168.452     -33.350       7.876
  O      170.578     -32.886       4.918
  O      171.528     -30.737       3.910
  H      171.787     -31.398       3.238
  H      164.919     -29.290       7.765
  H      166.400     -34.545      10.739
  H      170.112     -34.362       8.752
  H      169.008     -32.983       7.017
  H      165.522     -32.502       6.724
  H      166.323     -30.672       8.751
  H      168.345     -30.121       7.595
  H      166.658     -30.116       5.029
  H      168.863     -30.907       4.054
  H      168.862     -29.204       4.588
  P      167.702     -27.559       8.218
  C      167.004     -27.141      10.658
  O      166.622     -27.684       9.398
  O      168.067     -26.159       7.848
  O      168.970     -28.333       8.822
  H      169.711     -27.702       8.913
  H      166.211     -27.281      11.362
  H      167.204     -26.095      10.550
  H      167.884     -27.638      11.009

 6  7  8  9  10  11  12  13  14  15  16  27  31  32  33  34  35 0
 6-311+G(2d,p)
 ****
 36  37 0
 6-311+G(2d,p)
 ****
 1  2  3  4  5  17  18  19  20  21  22  23  24  25 0
 3-21G
 ****
 26  28  29  30  38  39  40  41  42  43  44  45 0
 3-21G
 ****


