%nproc=1
%NoSave
%Mem=1900MB
#P OB98/GEN NMR

erre ene a

0 1
  C      -42.092    -466.266      41.182
  O      -42.233    -465.442      40.040
  P      -42.088    -463.853      40.270
  C      -42.570    -462.373      42.371
  O      -42.914    -463.516      41.610
  C      -43.830    -461.761      42.976
  O      -44.744    -462.793      43.397
  C      -43.582    -460.886      44.199
  O      -43.173    -459.586      43.807
  C      -44.945    -460.922      44.880
  O      -45.855    -459.981      44.261
  C      -45.398    -462.366      44.624
  N      -47.360    -465.422      48.144
  C      -47.983    -464.497      47.324
  N      -49.327    -464.416      47.423
  N      -47.346    -463.736      46.472
  C      -46.002    -463.919      46.495
  C      -45.272    -464.784      47.275
  C      -45.992    -465.661      48.171
  O      -45.504    -466.561      48.850
  N      -43.926    -464.673      47.026
  C      -43.849    -463.762      46.075
  N      -45.084    -463.290      45.699
  O      -42.986    -463.233      39.099
  O      -40.683    -463.334      40.264
  H      -45.808    -460.081      43.297
  H      -42.424    -462.960      38.346
  H      -47.904    -465.992      48.771
  H      -42.937    -463.427      45.618
  H      -46.485    -462.437      44.453
  H      -44.889    -460.645      45.942
  H      -49.887    -464.950      48.066
  H      -42.835    -461.346      44.857
  H      -49.804    -463.743      46.826
  H      -44.339    -461.180      42.188
  H      -42.088    -461.635      41.720
  H      -41.865    -462.665      43.158
  P      -42.746    -458.569      44.974
  C      -43.893    -457.621      47.103
  O      -44.049    -458.301      45.868
  O      -42.528    -457.182      44.185
  O      -41.517    -458.957      45.722
  H      -41.787    -456.691      44.591
  H      -44.813    -457.066      47.315
  H      -43.052    -456.920      47.077
  H      -43.719    -458.355      47.893
  H      -42.209    -467.291      40.899
  H      -42.840    -466.008      41.903
  H      -41.121    -466.122      41.608

 3  4  5  6  7  8  9  10  11  12  23  26  30  31 0
 6-311+G(2d,p)
 ****
 33  35  36  37  38 0
 6-311+G(2d,p)
 ****
 1  2  13  14  15  16  17  18  19  20  21  22  24  25 0
 3-21G
 ****
 27  28  29  32  34  39  40  41  42  43  44  45  46  47  48  49 0
 3-21G
 ****


