%nproc=1
%NoSave
%Mem=1900MB
#P OB98/GEN NMR

erre ene a

0 1
  C     1136.803    1515.695    -520.168
  O     1136.531    1515.217    -518.845
  P     1137.598    1514.171    -518.268
  C     1138.441    1515.725    -516.342
  O     1138.764    1515.028    -517.546
  C     1139.594    1516.604    -515.884
  O     1140.739    1515.785    -515.436
  C     1140.123    1517.562    -516.963
  O     1140.523    1518.778    -516.308
  C     1141.323    1516.799    -517.490
  O     1142.223    1517.626    -518.247
  C     1141.876    1516.266    -516.166
  N     1146.861    1515.119    -516.071
  C     1146.188    1516.268    -515.858
  N     1144.872    1516.510    -515.911
  C     1144.204    1515.366    -516.210
  C     1144.750    1514.103    -516.443
  C     1146.148    1513.989    -516.365
  N     1146.827    1512.815    -516.592
  N     1143.745    1513.197    -516.744
  C     1142.631    1513.902    -516.755
  N     1142.854    1515.188    -516.350
  O     1138.309    1513.610    -519.578
  O     1136.999    1513.118    -517.433
  H     1142.812    1517.058    -518.749
  H     1137.935    1512.752    -519.814
  H     1146.807    1517.137    -515.606
  H     1141.654    1513.562    -517.040
  H     1142.384    1517.042    -515.575
  H     1141.003    1516.014    -518.147
  H     1139.375    1517.805    -517.750
  H     1139.245    1517.184    -514.995
  H     1138.194    1514.999    -515.559
  H     1147.842    1512.843    -516.511
  H     1146.330    1511.983    -516.830
  H     1137.536    1516.299    -516.499
  P     1140.202    1520.160    -517.025
  C     1139.025    1521.006    -514.907
  O     1138.884    1520.723    -516.284
  O     1139.591    1519.674    -518.440
  O     1141.372    1521.106    -517.177
  H     1138.914    1519.023    -518.280
  H     1138.097    1521.468    -514.544
  H     1139.842    1521.744    -514.749
  H     1139.211    1520.078    -514.359
  H     1136.039    1516.384    -520.462
  H     1136.821    1514.870    -520.849
  H     1137.752    1516.188    -520.181

 3  4  5  6  7  8  9  10  11  12  22  25  29  30  31  32 0
 6-311+G(2d,p)
 ****
 33  36  37 0
 6-311+G(2d,p)
 ****
 1  2  13  14  15  16  17  18  19  20  21  23  24  26 0
 3-21G
 ****
 27  28  34  35  38  39  40  41  42  43  44  45  46  47  48 0
 3-21G
 ****


