%nproc=1
%NoSave
%Mem=1900MB
#P OB98/GEN NMR

erre ene a

0 1
  C     -402.813    -704.403     566.344
  O     -404.089    -704.024     566.823
  H     -402.714    -705.488     566.446
  H     -402.034    -703.916     566.933
  H     -402.709    -704.139     565.288
  P     -404.446    -702.461     566.762
  C     -402.716    -701.751     568.562
  O     -403.105    -701.678     567.201
  C     -401.604    -700.741     568.852
  O     -402.148    -699.395     568.749
  C     -400.979    -700.875     570.243
  O     -399.572    -700.622     570.159
  C     -401.632    -699.754     571.036
  O     -400.868    -699.364     572.161
  C     -401.760    -698.693     569.947
  N     -402.244    -694.097     571.962
  C     -401.113    -694.841     571.686
  N     -399.926    -694.289     571.999
  N     -401.140    -696.038     571.151
  C     -402.399    -696.464     570.864
  C     -403.596    -695.828     571.097
  C     -403.556    -694.514     571.707
  O     -404.512    -693.811     571.984
  N     -404.656    -696.613     570.690
  C     -404.103    -697.719     570.220
  N     -402.728    -697.671     570.312
  O     -405.417    -702.252     568.022
  O     -405.060    -701.990     565.491
  H     -399.920    -699.385     571.908
  H     -406.056    -701.532     567.853
  H     -402.161    -693.194     572.380
  H     -404.626    -698.568     569.818
  H     -400.818    -698.170     569.755
  H     -402.620    -700.072     571.386
  H     -399.817    -693.351     572.383
  H     -401.145    -701.862     570.699
  H     -399.080    -694.817     571.800
  H     -400.845    -700.830     568.064
  H     -402.360    -702.759     568.781
  H     -403.580    -701.529     569.206
  P     -398.616    -701.853     569.800
  C     -398.547    -703.452     571.846
  O     -399.131    -703.159     570.593
  O     -397.244    -701.474     570.551
  O     -398.387    -702.042     568.331
  H     -396.570    -701.212     569.908
  H     -398.988    -704.341     572.246
  H     -398.716    -702.636     572.518
  H     -397.495    -703.601     571.723

 6  7  8  9  10  11  12  13  14  15  26  29  33  34 0
 6-311+G(2d,p)
 ****
 36  38  39  40  41 0
 6-311+G(2d,p)
 ****
 1  2  3  4  5  16  17  18  19  20  21  22  23  24  25 0
 3-21G
 ****
 27  28  30  31  32  35  37  42  43  44  45  46  47 0
 3-21G
 ****
 48  49 0
 3-21G
 ****


