%nproc=1
%NoSave
%Mem=1900MB
#P OB98/GEN NMR

erre ene a

0 1
  C      359.595    -249.114    -446.678
  O      358.462    -248.978    -445.844
  H      360.498    -249.100    -446.057
  H      359.640    -248.278    -447.381
  H      359.556    -250.063    -447.227
  P      357.020    -249.085    -446.542
  C      355.995    -250.346    -444.502
  O      355.949    -249.205    -445.344
  C      355.358    -250.020    -443.146
  O      356.322    -249.253    -442.363
  C      354.083    -249.177    -443.264
  O      353.156    -249.587    -442.254
  C      354.574    -247.765    -442.968
  O      353.545    -246.894    -442.502
  C      355.662    -248.040    -441.926
  N      356.620    -246.950    -441.817
  C      356.200    -245.778    -441.188
  O      355.088    -245.630    -440.658
  N      357.096    -244.746    -441.181
  C      358.345    -244.751    -441.759
  O      359.089    -243.783    -441.747
  C      358.734    -246.015    -442.406
  C      357.871    -247.036    -442.407
  O      357.027    -250.556    -447.178
  O      356.709    -248.023    -447.547
  H      357.376    -250.529    -448.089
  H      353.193    -247.270    -441.672
  H      356.793    -243.889    -440.737
  H      359.707    -246.055    -442.876
  H      358.124    -247.975    -442.903
  H      355.211    -248.245    -440.953
  H      355.007    -247.324    -443.872
  H      353.614    -249.246    -444.249
  H      355.171    -250.952    -442.612
  H      357.043    -250.637    -444.348
  H      355.465    -251.181    -444.983
  P      351.894    -250.471    -442.714
  C      351.322    -251.513    -440.379
  O      350.959    -250.613    -441.417
  O      352.570    -251.911    -442.879
  O      351.224    -249.937    -443.941
  H      353.259    -252.103    -442.214
  H      350.588    -251.475    -439.601
  H      352.276    -251.234    -439.983
  H      351.375    -252.507    -440.771

 6  7  8  9  10  11  12  13  14  15  16  27  31  32  33  34  35 0
 6-311+G(2d,p)
 ****
 36  37 0
 6-311+G(2d,p)
 ****
 1  2  3  4  5  17  18  19  20  21  22  23  24  25 0
 3-21G
 ****
 26  28  29  30  38  39  40  41  42  43  44  45 0
 3-21G
 ****


