%nproc=1
%NoSave
%Mem=1900MB
#P OB98/GEN NMR

erre ene a

0 1
  C     -477.654    -895.130     315.344
  O     -478.626    -894.110     315.030
  P     -478.960    -893.840     313.491
  C     -481.123    -895.260     313.765
  O     -479.971    -894.970     312.975
  C     -482.392    -895.200     312.906
  O     -482.447    -893.960     312.161
  C     -482.463    -896.290     311.866
  O     -482.869    -897.520     312.457
  C     -483.469    -895.730     310.873
  O     -484.820    -896.110     311.219
  C     -483.280    -894.200     311.022
  N     -482.732    -893.590     309.824
  C     -483.657    -893.000     308.949
  O     -484.868    -893.050     309.209
  N     -483.191    -892.410     307.798
  C     -481.923    -892.420     307.531
  N     -481.520    -891.820     306.383
  C     -480.913    -893.060     308.412
  C     -481.387    -893.620     309.534
  O     -477.573    -894.230     312.754
  O     -479.355    -892.440     313.187
  H     -485.369    -895.830     310.459
  H     -477.448    -893.670     311.967
  H     -479.863    -893.060     308.151
  H     -480.723    -894.100     310.248
  H     -484.253    -893.710     311.231
  H     -483.305    -896.100     309.855
  H     -481.480    -896.400     311.368
  H     -483.269    -895.250     313.569
  H     -482.235    -891.410     305.805
  H     -481.200    -894.560     314.590
  H     -480.550    -891.800     306.078
  H     -480.997    -896.250     314.221
  P     -481.713    -898.580     312.836
  C     -482.262    -898.910     315.315
  O     -481.383    -898.310     314.374
  O     -480.421    -897.940     312.101
  O     -481.942    -900.000     312.423
  H     -479.666    -898.550     312.164
  H     -481.807    -898.820     316.316
  H     -482.414    -899.970     315.075
  H     -483.222    -898.370     315.317
  H     -477.536    -895.196     316.405
  H     -476.715    -894.878     314.896
  H     -477.990    -896.072     314.963

 3  4  5  6  7  8  9  10  11  12  13  21  23  27  28  29  30  32 0
 6-311+G(2d,p)
 ****
 34  35 0
 6-311+G(2d,p)
 ****
 1  2  14  15  16  17  18  19  20  22  24  25  26 0
 3-21G
 ****
 31  33  36  37  38  39  40  41  42  43  44  45  46 0
 3-21G
 ****


