%nproc=1
%NoSave
%Mem=1900MB
#P OB98/GEN NMR

erre ene a

0 1
  C      413.448    -898.530     842.211
  O      412.216    -899.180     842.541
  P      411.299    -898.740     843.781
  C      411.107    -896.220     843.219
  O      410.422    -897.460     843.379
  C      410.177    -895.130     842.696
  O      409.855    -895.340     841.323
  C      408.841    -895.020     843.422
  O      409.002    -894.400     844.690
  C      408.018    -894.210     842.420
  O      408.287    -892.810     842.536
  C      408.561    -894.760     841.067
  N      407.646    -895.720     840.466
  C      406.631    -895.200     839.654
  O      406.505    -893.980     839.526
  N      405.774    -896.080     839.022
  C      405.865    -897.350     839.242
  N      404.992    -898.170     838.588
  C      406.856    -897.940     840.166
  C      407.709    -897.070     840.737
  O      412.051    -898.570     845.068
  O      410.208    -899.910     843.931
  H      408.213    -892.590     843.485
  H      409.958    -900.000     844.865
  H      406.898    -899.010     840.349
  H      408.479    -897.420     841.396
  H      408.727    -893.940     840.357
  H      406.950    -894.350     842.539
  H      408.409    -896.020     843.534
  H      410.729    -894.170     842.774
  H      404.329    -897.730     837.977
  H      411.932    -896.380     842.502
  H      404.987    -899.170     838.694
  H      411.542    -895.940     844.187
  P      408.127    -894.920     845.942
  C      410.143    -895.570     847.408
  O      409.014    -894.710     847.254
  O      407.542    -896.280     845.785
  O      406.989    -893.790     846.093
  H      406.189    -894.220     846.445
  H      410.844    -895.100     848.092
  H      410.619    -895.760     846.451
  H      409.797    -896.510     847.862
  H      413.878    -898.997     841.349
  H      414.125    -898.610     843.035
  H      413.262    -897.497     842.002

 3  4  5  6  7  8  9  10  11  12  13  23  27  28  29  30  32 0
 6-311+G(2d,p)
 ****
 34  35 0
 6-311+G(2d,p)
 ****
 1  2  14  15  16  17  18  19  20  21  22  24  25  26 0
 3-21G
 ****
 31  33  36  37  38  39  40  41  42  43  44  45  46 0
 3-21G
 ****


