%nproc=1
%NoSave
%Mem=1900MB
#P OB98/GEN NMR

erre ene a

0 1
  C      209.117     114.404    -146.375
  O      208.138     113.406    -146.072
  P      208.503     112.167    -145.120
  C      209.128     110.499    -146.958
  O      209.606     111.251    -145.848
  C      209.996     109.278    -147.287
  O      211.352     109.675    -147.611
  C      210.090     108.234    -146.166
  O      210.197     106.965    -146.820
  C      211.395     108.607    -145.489
  O      211.920     107.548    -144.695
  C      212.246     109.013    -146.698
  N      213.372     109.867    -146.323
  C      214.648     109.303    -146.405
  O      214.786     108.120    -146.722
  N      215.734     110.078    -146.076
  C      215.552     111.275    -145.611
  N      216.666     111.984    -145.279
  C      214.216     111.881    -145.428
  C      213.182     111.130    -145.811
  O      207.323     111.414    -144.592
  O      209.320     112.841    -143.913
  H      212.825     107.800    -144.406
  H      209.178     112.321    -143.100
  H      214.114     112.872    -145.012
  H      212.166     111.486    -145.720
  H      212.643     108.123    -147.208
  H      211.238     109.468    -144.829
  H      209.236     108.254    -145.483
  H      209.580     108.816    -148.189
  H      217.562     111.524    -145.398
  H      209.093     111.159    -147.833
  H      216.634     112.877    -144.805
  H      208.099     110.181    -146.755
  P      208.907     106.133    -147.274
  C      209.557     104.017    -145.988
  O      208.615     105.066    -146.115
  O      208.986     105.552    -148.649
  O      207.683     107.160    -147.146
  H      206.928     106.827    -147.662
  H      209.372     103.488    -145.049
  H      210.578     104.412    -145.979
  H      209.444     103.317    -146.819
  H      208.687     115.142    -147.019
  H      209.952     113.947    -146.863
  H      209.444     114.869    -145.469

 3  4  5  6  7  8  9  10  11  12  13  23  27  28  29  30  32 0
 6-311+G(2d,p)
 ****
 34  35 0
 6-311+G(2d,p)
 ****
 1  2  14  15  16  17  18  19  20  21  22  24  25  26 0
 3-21G
 ****
 31  33  36  37  38  39  40  41  42  43  44  45  46 0
 3-21G
 ****


