%nproc=1
%NoSave
%Mem=1900MB
#P OB98/GEN NMR

erre ene a

0 1
  C      289.280     166.770    -285.804
  O      289.390     165.405    -286.157
  H      288.523     167.236    -286.440
  H      290.233     167.285    -285.959
  H      288.967     166.870    -284.760
  P      290.469     164.504    -285.393
  C      291.573     163.854    -287.635
  O      290.947     163.391    -286.445
  C      291.059     163.074    -288.842
  O      291.521     161.710    -288.795
  C      289.533     163.005    -288.942
  O      289.018     164.193    -289.517
  C      289.371     161.798    -289.850
  O      289.656     162.174    -291.211
  C      290.470     160.858    -289.323
  N      287.917     156.599    -288.266
  C      288.020     157.299    -289.453
  N      287.320     156.810    -290.498
  N      288.735     158.383    -289.599
  C      289.324     158.794    -288.453
  C      289.282     158.198    -287.212
  C      288.543     156.960    -287.082
  O      288.448     156.298    -286.052
  N      289.928     158.955    -286.268
  C      290.404     159.981    -286.947
  N      290.057     159.935    -288.277
  O      290.041     163.943    -284.070
  O      291.751     165.451    -285.258
  H      289.654     161.356    -291.742
  H      291.740     165.939    -284.414
  H      287.345     155.773    -288.212
  H      291.005     160.780    -286.529
  H      290.909     160.251    -290.125
  H      288.358     161.389    -289.833
  H      286.638     156.071    -290.410
  H      289.078     162.785    -287.971
  H      287.336     157.342    -291.361
  H      291.488     163.529    -289.744
  H      292.651     163.707    -287.518
  H      291.379     164.922    -287.779
  P      287.764     164.964    -288.870
  C      286.059     163.967    -290.542
  O      286.709     165.133    -290.066
  O      288.105     166.225    -288.156
  O      287.054     163.862    -287.958
  H      287.451     163.798    -287.053
  H      285.389     164.230    -291.334
  H      285.508     163.515    -289.744
  H      286.789     163.276    -290.908

 6  7  8  9  10  11  12  13  14  15  26  29  33  34 0
 6-311+G(2d,p)
 ****
 36  38  39  40  41 0
 6-311+G(2d,p)
 ****
 1  2  3  4  5  16  17  18  19  20  21  22  23  24  25 0
 3-21G
 ****
 27  28  30  31  32  35  37  42  43  44  45  46  47 0
 3-21G
 ****
 48  49 0
 3-21G
 ****


