%nproc=1
%NoSave
%Mem=1900MB
#P OB98/GEN NMR

erre ene a

0 1
  C     -294.477    -797.516    1357.428
  O     -294.593    -796.368    1358.278
  P     -296.006    -795.732    1358.690
  C     -296.442    -796.770    1361.026
  O     -296.094    -795.594    1360.284
  C     -295.868    -796.731    1362.451
  O     -294.462    -796.814    1362.442
  C     -296.213    -795.463    1363.231
  O     -297.582    -795.496    1363.675
  C     -295.188    -795.529    1364.366
  O     -295.622    -796.408    1365.410
  C     -293.955    -796.143    1363.614
  N     -292.960    -795.123    1363.271
  C     -291.981    -794.867    1364.232
  O     -292.019    -795.455    1365.329
  N     -290.990    -793.955    1363.927
  C     -291.024    -793.279    1362.818
  N     -290.016    -792.406    1362.580
  C     -292.108    -793.460    1361.820
  C     -293.025    -794.388    1362.113
  O     -297.202    -796.427    1358.082
  O     -295.943    -794.196    1358.194
  H     -295.020    -796.268    1366.164
  H     -296.834    -793.893    1357.943
  H     -292.110    -792.850    1360.899
  H     -293.824    -794.593    1361.414
  H     -293.462    -796.919    1364.232
  H     -294.983    -794.559    1364.799
  H     -296.038    -794.587    1362.601
  H     -296.274    -797.630    1362.970
  H     -289.314    -792.305    1363.278
  H     -296.013    -797.656    1360.479
  H     -289.961    -791.851    1361.744
  H     -297.534    -796.868    1361.029
  P     -298.451    -794.149    1363.595
  C     -299.686    -794.602    1361.368
  O     -299.796    -794.523    1362.804
  O     -297.742    -792.945    1363.109
  O     -298.979    -793.961    1365.105
  H     -299.096    -793.009    1365.270
  H     -300.516    -795.208    1360.985
  H     -298.745    -795.041    1361.072
  H     -299.781    -793.587    1360.956
  H     -293.443    -797.757    1357.293
  H     -294.920    -797.302    1356.478
  H     -294.981    -798.346    1357.878

 3  4  5  6  7  8  9  10  11  12  13  23  27  28  29  30  32 0
 6-311+G(2d,p)
 ****
 34  35 0
 6-311+G(2d,p)
 ****
 1  2  14  15  16  17  18  19  20  21  22  24  25  26 0
 3-21G
 ****
 31  33  36  37  38  39  40  41  42  43  44  45  46 0
 3-21G
 ****


