%nproc=1
%NoSave
%Mem=1900MB
#P OB98/GEN NMR

erre ene a

0 1
  C      -98.635    -727.219    -323.250
  O      -99.470    -726.280    -322.570
  P      -99.891    -724.932    -323.335
  C     -102.263    -725.671    -324.251
  O     -100.929    -725.276    -324.495
  C     -103.220    -724.717    -324.974
  O     -102.985    -724.764    -326.401
  C     -104.695    -725.051    -324.747
  O     -105.206    -724.441    -323.576
  C     -105.329    -724.524    -326.021
  O     -105.471    -723.086    -325.958
  C     -104.271    -724.915    -327.083
  N     -104.330    -726.269    -327.662
  C     -105.216    -726.538    -328.707
  O     -105.985    -725.712    -329.195
  N     -105.200    -727.819    -329.200
  C     -104.292    -728.799    -328.890
  O     -104.295    -729.901    -329.405
  C     -103.293    -728.415    -327.891
  C     -103.355    -727.208    -327.323
  O      -98.568    -724.510    -324.123
  O     -100.376    -723.833    -322.433
  H     -105.501    -722.759    -326.881
  H      -98.223    -723.660    -323.780
  H     -105.891    -728.048    -329.901
  H     -102.528    -729.145    -327.647
  H     -102.615    -726.920    -326.589
  H     -104.279    -724.209    -327.921
  H     -106.342    -724.918    -326.157
  H     -104.838    -726.135    -324.726
  H     -103.012    -723.688    -324.630
  H     -102.483    -725.672    -323.173
  H     -102.413    -726.699    -324.598
  P     -105.451    -725.341    -322.269
  C     -103.529    -724.180    -321.016
  O     -104.033    -725.405    -321.512
  O     -106.129    -726.651    -322.492
  O     -106.307    -724.372    -321.314
  H     -107.274    -724.560    -321.395
  H     -102.658    -724.382    -320.382
  H     -104.297    -723.670    -320.406
  H     -103.230    -723.534    -321.844
  H      -98.446    -728.057    -322.611
  H      -97.708    -726.751    -323.507
  H      -99.125    -727.553    -324.141

 3  4  5  6  7  8  9  10  11  12  13  23  28  29  30  31  32 0
 6-311+G(2d,p)
 ****
 33  34 0
 6-311+G(2d,p)
 ****
 1  2  14  15  16  17  18  19  20  21  22  24  25  26  27 0
 3-21G
 ****
 35  36  37  38  39  40  41  42  43  44  45 0
 3-21G
 ****


