%nproc=1
%NoSave
%Mem=1900MB
#P OB98/GEN NMR

erre ene a

0 1
  C      540.716     427.253    -169.378
  O      539.969     427.306    -170.576
  H      540.213     426.573    -168.684
  H      540.771     428.246    -168.917
  H      541.721     426.872    -169.573
  P      540.455     428.290    -171.743
  C      541.608     426.311    -172.933
  O      540.678     427.382    -173.050
  C      541.956     425.757    -174.323
  O      543.092     424.876    -174.170
  C      540.799     424.950    -174.937
  O      540.445     425.388    -176.245
  C      541.254     423.505    -174.771
  O      540.706     422.607    -175.719
  C      542.777     423.617    -174.804
  N      543.470     422.513    -174.130
  C      543.307     421.237    -174.663
  O      542.652     420.967    -175.667
  N      543.954     420.232    -173.990
  C      544.717     420.368    -172.874
  O      545.279     419.434    -172.320
  C      544.838     421.743    -172.347
  C      544.214     422.737    -172.985
  O      541.602     429.184    -171.399
  O      539.142     429.131    -172.114
  H      539.737     422.723    -175.714
  H      539.198     430.021    -171.712
  H      543.855     419.306    -174.378
  H      545.425     421.890    -171.449
  H      544.276     423.760    -172.630
  H      543.143     423.655    -175.831
  H      540.938     423.152    -173.780
  H      539.874     425.096    -174.362
  H      542.258     426.587    -174.969
  H      541.150     425.530    -172.315
  H      542.520     426.664    -172.440
  P      538.963     425.760    -176.714
  C      539.016     428.354    -176.358
  O      538.970     427.262    -177.260
  O      537.876     425.390    -175.758
  O      538.758     424.872    -178.042
  H      537.810     424.637    -178.084
  H      539.013     429.272    -176.908
  H      539.908     428.293    -175.770
  H      538.162     428.322    -175.715

 6  7  8  9  10  11  12  13  14  15  16  26  31  32  33  34  35 0
 6-311+G(2d,p)
 ****
 36  37 0
 6-311+G(2d,p)
 ****
 1  2  3  4  5  17  18  19  20  21  22  23  24  25 0
 3-21G
 ****
 27  28  29  30  38  39  40  41  42  43  44  45 0
 3-21G
 ****


