%nproc=1
%NoSave
%Mem=1900MB
#P OB98/GEN NMR

erre ene a

0 1
  C       36.097      27.146      95.258
  O       34.916      26.901      96.001
  P       35.090      26.452      97.534
  C       35.549      24.203      98.767
  O       35.297      24.863      97.530
  C       35.199      22.723      98.653
  O       33.796      22.564      98.361
  C       35.931      21.982      97.540
  O       37.276      21.715      97.901
  C       35.050      20.745      97.402
  O       35.350      19.807      98.447
  C       33.642      21.331      97.607
  N       29.107      22.166      95.379
  C       29.444      21.860      96.652
  N       30.671      21.632      97.163
  C       31.612      21.752      96.212
  C       31.417      22.035      94.872
  C       30.095      22.253      94.458
  N       29.755      22.559      93.157
  N       32.620      22.054      94.195
  C       33.525      21.796      95.116
  N       32.968      21.620      96.353
  O       33.621      26.632      98.135
  O       36.112      27.228      98.304
  H       36.311      19.626      98.409
  H       33.658      26.913      99.070
  H       28.617      21.793      97.355
  H       34.590      21.731      94.938
  H       32.990      20.668      98.187
  H       35.182      20.227      96.446
  H       35.905      22.565      96.612
  H       35.404      22.250      99.623
  H       34.931      24.653      99.551
  H       28.775      22.552      92.916
  H       30.473      22.485      92.448
  H       36.601      24.340      99.034
  P       38.417      22.163      96.865
  C       38.763      21.654      94.371
  O       38.153      21.236      95.580
  O       39.720      21.500      97.513
  O       38.492      23.628      96.607
  H       39.577      20.565      97.746
  H       38.548      20.914      93.598
  H       39.846      21.730      94.500
  H       38.354      22.620      94.060
  H       35.838      27.435      94.261
  H       36.691      26.256      95.229
  H       36.655      27.932      95.723

 3  4  5  6  7  8  9  10  11  12  22  25  29  30  31  32 0
 6-311+G(2d,p)
 ****
 33  36  37 0
 6-311+G(2d,p)
 ****
 1  2  13  14  15  16  17  18  19  20  21  23  24  26 0
 3-21G
 ****
 27  28  34  35  38  39  40  41  42  43  44  45  46  47  48 0
 3-21G
 ****


