%nproc=1
%NoSave
%Mem=1900MB
#P OB98/GEN NMR

erre ene a

0 1
  C      350.033    -157.669      78.071
  O      348.747    -158.259      78.003
  P      347.884    -158.636      79.286
  C      348.218    -160.021      81.465
  O      348.759    -159.631      80.207
  C      348.906    -161.270      82.046
  O      350.335    -161.076      82.066
  C      348.479    -161.468      83.508
  O      347.262    -162.127      83.811
  C      349.712    -162.042      84.203
  O      349.661    -163.463      84.338
  C      350.861    -161.633      83.278
  N      353.996    -160.614      87.134
  C      353.463    -161.824      86.738
  N      353.650    -162.854      87.596
  N      352.813    -162.002      85.623
  C      352.620    -160.856      84.925
  C      353.109    -159.597      85.201
  C      353.878    -159.432      86.415
  O      354.284    -158.353      86.842
  N      352.664    -158.669      84.300
  C      351.872    -159.347      83.499
  N      351.780    -160.669      83.863
  O      346.446    -158.953      79.066
  O      347.951    -157.263      80.133
  H      350.509    -163.761      84.723
  H      347.100    -157.161      80.605
  H      354.431    -160.525      88.044
  H      351.318    -158.924      82.667
  H      351.454    -162.507      82.988
  H      349.803    -161.639      85.221
  H      354.027    -162.724      88.527
  H      348.356    -160.468      83.936
  H      353.135    -163.716      87.428
  H      348.729    -162.145      81.410
  H      347.149    -160.194      81.326
  H      348.323    -159.195      82.178
  P      346.451    -162.036      85.186
  C      346.507    -163.103      87.517
  O      347.174    -162.968      86.267
  O      345.085    -162.820      84.891
  O      346.159    -160.639      85.643
  H      344.395    -162.529      85.513
  H      347.207    -163.477      88.256
  H      345.675    -163.800      87.413
  H      346.121    -162.124      87.857
  H      350.406    -157.512      77.081
  H      350.696    -158.319      78.603
  H      349.968    -156.730      78.581

 3  4  5  6  7  8  9  10  11  12  23  26  30  31 0
 6-311+G(2d,p)
 ****
 33  35  36  37  38 0
 6-311+G(2d,p)
 ****
 1  2  13  14  15  16  17  18  19  20  21  22  24  25 0
 3-21G
 ****
 27  28  29  32  34  39  40  41  42  43  44  45  46  47  48  49 0
 3-21G
 ****


