%nproc=1
%NoSave
%Mem=1900MB
#P OB98/GEN NMR

erre ene a

0 1
  C      184.855     -45.326    -261.265
  O      183.646     -45.125    -261.973
  H      185.363     -44.363    -261.151
  H      185.506     -46.004    -261.825
  H      184.654     -45.739    -260.272
  P      182.643     -46.372    -262.037
  C      183.518     -47.100    -264.404
  O      183.290     -47.450    -263.044
  C      183.121     -48.256    -265.316
  O      183.875     -49.442    -265.001
  C      181.674     -48.696    -265.171
  O      180.763     -47.776    -265.732
  C      181.714     -50.035    -265.898
  O      181.558     -49.874    -267.312
  C      183.129     -50.555    -265.557
  N      183.086     -51.696    -264.663
  C      183.332     -52.937    -265.261
  O      183.584     -53.005    -266.469
  N      183.249     -54.068    -264.493
  C      182.922     -53.975    -263.241
  N      182.823     -55.136    -262.543
  C      182.655     -52.685    -262.568
  C      182.755     -51.595    -263.330
  O      181.415     -45.782    -262.876
  O      182.262     -46.939    -260.714
  H      181.524     -50.778    -267.692
  H      181.681     -45.327    -263.694
  H      182.398     -52.659    -261.520
  H      182.576     -50.609    -262.921
  H      183.661     -50.854    -266.472
  H      180.908     -50.698    -265.563
  H      181.442     -48.892    -264.114
  H      183.348     -47.968    -266.352
  H      182.958     -55.999    -263.054
  H      184.571     -46.836    -264.560
  H      182.500     -55.191    -261.587
  H      182.919     -46.215    -264.624
  P      179.270     -47.631    -265.169
  C      178.333     -49.035    -267.119
  O      178.453     -48.910    -265.707
  O      178.611     -46.324    -265.438
  O      179.435     -47.974    -263.613
  H      179.787     -48.863    -263.423
  H      177.774     -49.917    -267.353
  H      179.308     -49.105    -267.555
  H      177.827     -48.178    -267.511

 6  7  8  9  10  11  12  13  14  15  16  26  30  31  32  33  35 0
 6-311+G(2d,p)
 ****
 37  38 0
 6-311+G(2d,p)
 ****
 1  2  3  4  5  17  18  19  20  21  22  23  24  25 0
 3-21G
 ****
 27  28  29  34  36  39  40  41  42  43  44  45  46 0
 3-21G
 ****


