%nproc=1
%NoSave
%Mem=1900MB
#P OB98/GEN NMR

erre ene a

0 1
  C     1842.660    -208.849     -16.842
  O     1841.564    -208.970     -17.717
  H     1843.096    -209.841     -16.714
  H     1842.325    -208.491     -15.858
  H     1843.399    -208.183     -17.254
  P     1840.698    -207.650     -18.002
  C     1841.641    -207.731     -20.390
  O     1841.469    -206.933     -19.230
  C     1841.904    -206.832     -21.609
  O     1840.747    -205.949     -21.793
  C     1843.128    -205.932     -21.488
  O     1843.753    -205.787     -22.790
  C     1842.577    -204.593     -21.096
  O     1843.445    -203.522     -21.398
  C     1841.236    -204.617     -21.804
  N     1839.992    -199.682     -21.316
  C     1840.904    -200.324     -22.098
  N     1841.144    -201.628     -22.187
  C     1840.305    -202.325     -21.397
  C     1839.349    -201.837     -20.539
  C     1839.197    -200.424     -20.478
  N     1838.343    -199.775     -19.651
  N     1838.725    -202.870     -19.820
  C     1839.332    -203.961     -20.272
  N     1840.293    -203.682     -21.197
  O     1840.464    -206.765     -16.815
  O     1839.388    -208.226     -18.704
  H     1843.615    -203.548     -22.356
  H     1839.611    -208.876     -19.375
  H     1841.487    -199.676     -22.743
  H     1839.068    -204.974     -19.948
  H     1841.343    -204.284     -22.878
  H     1842.421    -204.585     -19.982
  H     1843.876    -206.331     -20.770
  H     1841.952    -207.470     -22.516
  H     1840.800    -208.362     -20.585
  H     1838.301    -198.763     -19.704
  H     1837.734    -200.310     -19.037
  H     1842.540    -208.376     -20.240
  P     1844.577    -207.042     -23.401
  C     1843.422    -206.562     -25.674
  O     1843.809    -207.579     -24.734
  O     1844.923    -208.115     -22.442
  O     1845.903    -206.355     -24.034
  H     1846.650    -206.883     -23.757
  H     1842.929    -207.016     -26.508
  H     1844.293    -206.042     -26.015
  H     1842.757    -205.872     -25.199

 6  7  8  9  10  11  12  13  14  15  25  28  32  33  34  35 0
 6-311+G(2d,p)
 ****
 36  39  40 0
 6-311+G(2d,p)
 ****
 1  2  3  4  5  16  17  18  19  20  21  22  23  24 0
 3-21G
 ****
 26  27  29  30  31  37  38  41  42  43  44  45  46  47 0
 3-21G
 ****
 48 0
 3-21G
 ****


