%nproc=1
%NoSave
%Mem=1900MB
#P OB98/GEN NMR

erre ene a

0 1
  C       21.285     -73.306     -36.556
  O       21.374     -74.480     -37.338
  H       20.255     -73.195     -36.205
  H       21.545     -72.432     -37.160
  H       21.949     -73.373     -35.690
  P       22.823     -74.850     -37.918
  C       22.088     -75.666     -40.278
  O       22.590     -76.020     -38.994
  C       21.161     -76.763     -40.790
  O       21.862     -78.027     -40.792
  C       19.920     -76.984     -39.930
  O       18.917     -76.014     -40.185
  C       19.521     -78.394     -40.345
  O       18.750     -78.390     -41.555
  C       20.877     -79.065     -40.592
  N       19.392     -82.925     -37.610
  C       18.810     -82.328     -38.677
  N       19.283     -81.314     -39.430
  C       20.494     -80.924     -38.993
  C       21.205     -81.432     -37.917
  C       20.608     -82.487     -37.207
  N       21.182     -83.070     -36.104
  N       22.389     -80.742     -37.752
  C       22.396     -79.840     -38.713
  N       21.273     -79.918     -39.488
  O       23.521     -75.600     -36.686
  O       23.631     -73.693     -38.401
  H       17.912     -77.928     -41.350
  H       24.057     -74.963     -36.178
  H       17.833     -82.716     -38.956
  H       23.179     -79.108     -38.881
  H       20.875     -79.685     -41.495
  H       18.914     -78.876     -39.575
  H       20.192     -76.991     -38.867
  H       20.878     -76.527     -41.825
  H       22.929     -75.551     -40.974
  H       21.556     -74.712     -40.201
  H       20.685     -83.805     -35.628
  H       22.038     -82.678     -35.734
  P       18.460     -75.054     -38.988
  C       16.229     -76.348     -38.661
  O       16.859     -75.102     -38.912
  O       18.770     -73.590     -39.555
  O       19.148     -75.308     -37.690
  H       19.609     -73.253     -39.187
  H       15.168     -76.213     -38.641
  H       16.558     -76.730     -37.717
  H       16.486     -77.040     -39.436

 6  7  8  9  10  11  12  13  14  15  25  28  32  33  34  35 0
 6-311+G(2d,p)
 ****
 36  37  40 0
 6-311+G(2d,p)
 ****
 1  2  3  4  5  16  17  18  19  20  21  22  23  24 0
 3-21G
 ****
 26  27  29  30  31  38  39 41  42  43  44  45  46  47  48 0
 3-21G
 ****


