%nproc=1
%NoSave
%Mem=1900MB
#P OB98/GEN NMR

erre ene a

0 1
  C     -452.538     514.390    -578.043
  O     -452.401     514.826    -579.382
  H     -451.540     514.268    -577.609
  H     -453.052     513.425    -578.011
  H     -453.091     515.130    -577.458
  P     -453.761     515.088    -580.190
  C     -455.714     513.553    -580.926
  O     -454.424     513.631    -580.326
  C     -455.613     512.910    -582.310
  O     -454.790     513.701    -583.186
  C     -454.992     511.520    -582.317
  O     -455.946     510.532    -581.939
  C     -454.591     511.384    -583.775
  O     -455.741     511.031    -584.565
  C     -454.132     512.813    -584.125
  N     -449.684     512.578    -586.687
  C     -450.918     512.117    -586.989
  N     -452.046     512.179    -586.246
  C     -451.813     512.792    -585.069
  C     -450.598     513.306    -584.621
  C     -449.503     513.194    -585.492
  N     -448.244     513.676    -585.193
  N     -450.734     513.863    -583.366
  C     -452.021     513.723    -583.081
  N     -452.697     513.053    -584.059
  O     -453.626     515.878    -581.452
  O     -454.666     515.773    -579.049
  H     -456.379     511.773    -584.515
  H     -454.511     515.345    -578.193
  H     -451.016     511.642    -587.962
  H     -452.501     514.111    -582.182
  H     -454.455     513.110    -585.141
  H     -453.845     510.602    -583.934
  H     -454.093     511.480    -581.690
  H     -456.625     512.877    -582.743
  H     -456.154     514.551    -581.015
  H     -447.485     513.398    -585.788
  H     -448.095     514.018    -584.261
  H     -456.346     512.949    -580.274
  P     -455.576     508.969    -582.004
  C     -455.803     507.126    -583.782
  O     -455.720     508.534    -583.541
  O     -456.327     508.109    -581.039
  O     -454.006     508.918    -581.747
  H     -453.770     508.132    -581.197
  H     -455.896     506.949    -584.833
  H     -456.657     506.727    -583.276
  H     -454.918     506.649    -583.417

 6  7  8  9  10  11  12  13  14  15  25  28  32  33  34  35 0
 6-311+G(2d,p)
 ****
 36  39  40 0
 6-311+G(2d,p)
 ****
 1  2  3  4  5  16  17  18  19  20  21  22  23  24 0
 3-21G
 ****
 26  27  29  30  31  37  38  41  42  43  44  45  46  47 0
 3-21G
 ****
 48 0
 3-21G
 ****


