%nproc=1
%NoSave
%Mem=1900MB
#P OB98/GEN NMR

erre ene a

0 1
  C      -25.842    -899.072    -297.315
  O      -25.533    -898.132    -298.357
  P      -26.174    -896.662    -298.257
  C      -28.670    -897.172    -298.843
  O      -27.430    -896.592    -299.256
  C      -29.833    -896.262    -299.219
  O      -29.819    -895.032    -298.483
  C      -29.848    -895.842    -300.685
  O      -30.411    -896.862    -301.509
  C      -30.753    -894.632    -300.648
  O      -32.136    -895.042    -300.611
  C      -30.355    -893.982    -299.316
  N      -29.413    -888.992    -298.632
  C      -30.525    -889.732    -298.420
  N      -30.709    -891.052    -298.644
  C      -29.572    -891.612    -299.118
  C      -28.373    -890.982    -299.385
  C      -28.314    -889.602    -299.115
  N      -27.175    -888.852    -299.324
  N      -27.443    -891.872    -299.868
  C      -28.071    -893.032    -299.887
  N      -29.370    -892.922    -299.451
  O      -25.085    -895.742    -298.981
  O      -26.437    -896.212    -296.856
  H      -32.667    -894.242    -300.475
  H      -25.059    -894.862    -298.546
  H      -31.382    -889.202    -298.028
  H      -27.645    -893.972    -300.205
  H      -31.219    -893.552    -298.794
  H      -30.640    -893.992    -301.527
  H      -28.839    -895.562    -301.026
  H      -30.771    -896.782    -298.982
  H      -28.659    -897.342    -297.769
  H      -27.201    -887.872    -299.083
  H      -26.343    -889.302    -299.664
  H      -28.771    -898.162    -299.311
  P      -29.414    -897.662    -302.481
  C      -30.727    -896.702    -304.509
  O      -30.219    -897.852    -303.855
  O      -29.396    -899.132    -301.836
  O      -28.052    -897.072    -302.584
  H      -28.529    -899.562    -302.005
  H      -30.958    -896.972    -305.546
  H      -29.989    -895.902    -304.516
  H      -31.639    -896.372    -304.020
  H      -25.349    -900.000    -297.514
  H      -26.900    -899.230    -297.280
  H      -25.508    -898.685    -296.375

 3  4  5  6  7  8  9  10  11  12  22  25  29  30  31  32 0
 6-311+G(2d,p)
 ****
 33  36  37 0
 6-311+G(2d,p)
 ****
 1  2  13  14  15  16  17  18  19  20  21  23  24  26 0
 3-21G
 ****
 27  28  34  35  38  39  40  41  42  43  44  45  46  47  48 0
 3-21G
 ****


