%nproc=1
%NoSave
%Mem=1900MB
#P OB98/GEN NMR

erre ene a

0 1
  C     -275.096    -897.390     875.074
  O     -276.251    -898.190     874.901
  H     -274.367    -897.660     874.298
  H     -274.643    -897.580     876.049
  H     -275.335    -896.330     874.970
  P     -277.447    -898.040     875.952
  C     -279.060    -897.020     874.216
  O     -278.367    -896.820     875.440
  C     -280.315    -896.130     874.171
  O     -281.260    -896.670     875.132
  C     -280.013    -894.680     874.551
  O     -280.482    -893.740     873.588
  C     -280.569    -894.560     875.973
  O     -280.955    -893.250     876.346
  C     -281.709    -895.590     875.982
  N     -282.033    -896.100     877.321
  C     -282.889    -895.330     878.091
  O     -283.425    -894.270     877.734
  N     -283.163    -895.820     879.351
  C     -282.661    -896.970     879.877
  O     -282.938    -897.360     881.007
  C     -281.738    -897.730     879.016
  C     -281.465    -897.260     877.797
  O     -277.041    -897.950     877.388
  O     -278.369    -899.330     875.672
  H     -280.177    -892.660     876.213
  H     -278.208    -900.000     876.365
  H     -283.794    -895.280     879.917
  H     -281.313    -898.630     879.409
  H     -280.779    -897.790     877.138
  H     -282.610    -895.170     875.555
  H     -279.784    -894.880     876.671
  H     -278.933    -894.480     874.579
  H     -280.768    -896.210     873.178
  H     -279.344    -898.070     874.152
  H     -278.399    -896.770     873.382
  P     -279.735    -892.380     873.201
  C     -278.558    -893.390     871.082
  O     -278.431    -892.750     872.349
  O     -279.562    -891.400     874.315
  O     -280.729    -891.710     872.100
  H     -280.639    -890.740     872.221
  H     -277.586    -893.556     870.667
  H     -279.126    -892.767     870.423
  H     -279.058    -894.328     871.205

 6  7  8  9  10  11  12  13  14  15  16  26  31  32  33  34  35 0
 6-311+G(2d,p)
 ****
 36  37 0
 6-311+G(2d,p)
 ****
 1  2  3  4  5  17  18  19  20  21  22  23  24  25 0
 3-21G
 ****
 27  28  29  30  38  39  40  41  42  43  44  45 0
 3-21G
 ****


