%nproc=1
%NoSave
%Mem=1900MB
#P OB98/GEN NMR

erre ene a

0 1
  C      602.236    -665.889     203.827
  O      602.780    -666.190     205.102
  H      602.706    -666.527     203.082
  H      602.463    -664.845     203.591
  H      601.156    -666.048     203.814
  P      601.981    -665.671     206.385
  C      602.577    -665.527     208.916
  O      603.059    -665.545     207.576
  C      603.639    -666.072     209.873
  O      604.004    -667.420     209.458
  C      604.925    -665.235     209.911
  O      605.427    -665.218     211.257
  C      605.883    -666.035     209.061
  O      607.248    -665.760     209.363
  C      605.440    -667.455     209.403
  N      609.649    -669.379     207.442
  C      609.455    -668.568     208.534
  N      610.563    -668.148     209.197
  N      608.277    -668.196     208.970
  C      607.251    -668.694     208.240
  C      607.306    -669.493     207.125
  C      608.615    -669.893     206.649
  O      608.852    -670.591     205.658
  N      606.051    -669.739     206.630
  C      605.233    -669.064     207.436
  N      605.933    -668.412     208.418
  O      601.104    -666.948     206.804
  O      601.133    -664.462     206.164
  H      607.799    -666.229     208.711
  H      600.215    -666.882     206.411
  H      610.578    -669.621     207.141
  H      604.171    -668.996     207.332
  H      605.818    -667.786     210.383
  H      605.718    -665.819     208.004
  H      611.504    -668.416     208.950
  H      604.800    -664.201     209.562
  H      610.443    -667.596     210.024
  H      603.200    -666.148     210.866
  H      601.682    -666.174     208.975
  H      602.296    -664.505     209.189
  P      604.889    -664.090     212.265
  C      604.293    -664.368     214.782
  O      605.281    -664.495     213.761
  O      603.296    -664.290     212.216
  O      605.256    -662.697     211.863
  H      602.850    -663.439     212.312
  H      604.707    -664.676     215.719
  H      603.452    -664.985     214.544
  H      603.979    -663.347     214.849

 6  7  8  9  10  11  12  13  14  15  26  29  33  34 0
 6-311+G(2d,p)
 ****
 36  38  39  40  41 0
 6-311+G(2d,p)
 ****
 1  2  3  4  5  16  17  18  19  20  21  22  23  24  25 0
 3-21G
 ****
 27  28  30  31  32  35  37  42  43  44  45  46  47 0
 3-21G
 ****
 48  49 0
 3-21G
 ****


