%nproc=1
%NoSave
%Mem=1900MB
#P OB98/GEN NMR

erre ene a

0 1
  C      -28.270     922.458     149.541
  O      -29.641     922.757     149.360
  P      -30.063     923.539     148.014
  C      -31.502     925.453     149.031
  O      -31.483     924.223     148.314
  C      -32.924     926.008     149.086
  O      -33.395     926.352     147.769
  C      -33.954     925.022     149.633
  O      -33.954     924.973     151.049
  C      -35.250     925.643     149.125
  O      -35.641     926.735     149.978
  C      -34.830     926.168     147.737
  N      -38.458     923.150     145.917
  C      -38.515     924.075     146.933
  N      -39.686     924.176     147.594
  N      -37.515     924.849     147.275
  C      -36.403     924.633     146.521
  C      -36.220     923.741     145.487
  C      -37.339     922.892     145.129
  O      -37.335     922.016     144.279
  N      -34.950     923.819     144.968
  C      -34.373     924.759     145.685
  N      -35.186     925.249     146.671
  O      -30.432     922.357     147.000
  O      -29.006     924.444     147.461
  H      -36.371     927.202     149.507
  H      -30.439     922.691     146.084
  H      -39.260     922.575     145.694
  H      -33.350     925.100     145.535
  H      -35.281     927.141     147.517
  H      -36.081     924.934     149.114
  H      -40.478     923.563     147.429
  H      -33.833     924.027     149.196
  H      -39.739     924.804     148.393
  H      -32.911     926.928     149.696
  H      -30.844     926.173     148.534
  H      -31.115     925.285     150.042
  P      -33.746     923.531     151.722
  C      -35.354     924.244     153.632
  O      -34.082     923.725     153.277
  O      -32.147     923.361     151.700
  O      -34.436     922.414     151.021
  H      -31.910     922.415     151.691
  H      -35.515     924.062     154.710
  H      -36.160     923.750     153.072
  H      -35.385     925.324     153.444
  H      -28.137     921.942     150.469
  H      -27.705     923.367     149.554
  H      -27.931     921.839     148.737

 3  4  5  6  7  8  9  10  11  12  23  26  30  31 0
 6-311+G(2d,p)
 ****
 33  35  36  37  38 0
 6-311+G(2d,p)
 ****
 1  2  13  14  15  16  17  18  19  20  21  22  24  25 0
 3-21G
 ****
 27  28  29  32  34  39  40  41  42  43  44  45  46  47  48  49 0
 3-21G
 ****


