%nproc=1
%NoSave
%Mem=1900MB
#P OB98/GEN NMR

erre ene a

0 1
  C     -113.595      23.008     989.759
  O     -113.197      21.691     990.094
  H     -114.673      23.094     989.907
  H     -113.361      23.224     988.711
  H     -113.086      23.731     990.403
  P     -111.670      21.264     989.844
  C     -110.347      19.189     990.660
  O     -111.585      19.683     990.148
  C     -110.451      17.691     990.975
  O     -111.283      17.527     992.177
  C     -111.102      16.860     989.858
  O     -110.536      15.535     989.921
  C     -112.563      16.848     990.295
  O     -113.294      15.874     989.592
  C     -112.382      16.660     991.807
  N     -113.607      17.000     992.545
  C     -114.621      16.039     992.531
  O     -114.463      14.987     991.893
  N     -115.797      16.302     993.186
  C     -115.960      17.449     993.765
  N     -117.151      17.652     994.391
  C     -114.930      18.530     993.746
  C     -113.788      18.236     993.142
  O     -110.639      22.096     990.532
  O     -111.501      21.334     988.255
  H     -112.964      14.963     989.788
  H     -111.000      22.130     988.004
  H     -115.138      19.469     994.236
  H     -112.986      18.952     993.081
  H     -112.098      15.635     992.046
  H     -113.041      17.823     990.075
  H     -110.947      17.295     988.854
  H     -109.460      17.307     991.236
  H     -117.822      16.895     994.372
  H     -110.123      19.757     991.566
  H     -117.412      18.522     994.865
  H     -109.546      19.357     989.938
  P     -109.725      14.881     988.700
  C     -107.197      14.449     988.343
  O     -108.313      14.324     989.244
  O     -109.616      15.768     987.501
  O     -110.532      13.534     988.348
  H     -110.420      13.344     987.407
  H     -106.319      14.050     988.806
  H     -107.040      15.482     988.111
  H     -107.403      13.908     987.443

 6  7  8  9  10  11  12  13  14  15  16  26  30  31  32  33  35 0
 6-311+G(2d,p)
 ****
 37  38 0
 6-311+G(2d,p)
 ****
 1  2  3  4  5  17  18  19  20  21  22  23  24  25 0
 3-21G
 ****
 27  28  29  34  36  39  40  41  42  43  44  45  46 0
 3-21G
 ****


