%nproc=1
%NoSave
%Mem=1900MB
#P OB98/GEN NMR

erre ene a

0 1
  C     -423.811      67.328      -6.949
  O     -422.964      66.774      -7.936
  H     -423.228      67.491      -6.039
  H     -424.622      66.630      -6.727
  H     -424.226      68.286      -7.277
  P     -423.455      66.768      -9.459
  C     -423.745      69.113     -10.497
  O     -422.838      68.073     -10.163
  C     -422.992      70.394     -10.893
  O     -421.856      70.576     -10.010
  C     -422.439      70.273     -12.317
  O     -422.329      71.542     -12.961
  C     -421.046      69.707     -12.088
  O     -420.156      69.954     -13.174
  C     -420.656      70.407     -10.787
  N     -415.796      68.929     -10.368
  C     -416.422      69.569     -11.415
  N     -415.662      69.830     -12.501
  N     -417.689      69.908     -11.402
  C     -418.340      69.517     -10.282
  C     -417.836      68.850      -9.189
  C     -416.426      68.518      -9.197
  O     -415.818      67.931      -8.302
  N     -418.809      68.606      -8.251
  C     -419.904      69.115      -8.779
  N     -419.669      69.690     -10.004
  O     -425.015      67.132      -9.358
  O     -423.239      65.483     -10.204
  H     -420.500      69.471     -13.949
  H     -425.496      66.787     -10.132
  H     -414.817      68.702     -10.419
  H     -420.884      69.095      -8.317
  H     -420.241      71.410     -10.996
  H     -421.128      68.619     -11.978
  H     -414.744      69.438     -12.627
  H     -423.044      69.613     -12.936
  H     -416.164      70.026     -13.373
  H     -423.641      71.268     -10.763
  H     -424.366      69.298      -9.618
  H     -424.408      68.795     -11.308
  P     -423.471      71.941     -14.010
  C     -424.880      73.595     -12.530
  O     -423.998      73.405     -13.627
  O     -424.683      70.976     -13.630
  O     -423.055      71.795     -15.439
  H     -424.772      70.261     -14.291
  H     -425.115      74.635     -12.437
  H     -424.410      73.254     -11.631
  H     -425.779      73.039     -12.695

 6  7  8  9  10  11  12  13  14  15  26  29  33  34 0
 6-311+G(2d,p)
 ****
 36  38  39  40  41 0
 6-311+G(2d,p)
 ****
 1  2  3  4  5  16  17  18  19  20  21  22  23  24  25 0
 3-21G
 ****
 27  28  30  31  32  35  37  42  43  44  45  46  47 0
 3-21G
 ****
 48  49 0
 3-21G
 ****


