%nproc=1
%NoSave
%Mem=1900MB
#P OB98/GEN NMR

erre ene a

0 1
  C     -215.499    -298.688     360.739
  O     -214.111    -298.480     360.574
  H     -215.654    -299.374     361.576
  H     -215.919    -299.137     359.836
  H     -216.012    -297.747     360.959
  P     -213.613    -297.314     359.596
  C     -211.552    -296.468     360.897
  O     -212.020    -297.207     359.779
  C     -211.473    -297.357     362.140
  O     -210.732    -298.569     361.804
  C     -210.760    -296.700     363.338
  O     -211.365    -297.211     364.534
  C     -209.350    -297.242     363.166
  O     -208.571    -297.043     364.318
  C     -209.670    -298.684     362.772
  N     -208.528    -299.408     362.228
  C     -208.220    -300.638     362.797
  O     -208.871    -301.157     363.704
  N     -207.118    -301.270     362.287
  C     -206.311    -300.799     361.292
  O     -205.347    -301.418     360.857
  C     -206.668    -299.479     360.753
  C     -207.742    -298.853     361.239
  O     -214.347    -296.020     359.703
  O     -213.761    -297.956     358.136
  H     -214.598    -297.662     357.732
  H     -207.650    -297.348     364.166
  H     -206.881    -302.168     362.686
  H     -206.034    -299.065     359.980
  H     -208.036    -297.877     360.867
  H     -210.073    -299.238     363.625
  H     -208.841    -296.720     362.353
  H     -210.825    -295.610     363.331
  H     -212.491    -297.674     362.414
  H     -212.244    -295.639     361.076
  H     -210.559    -296.062     360.670
  P     -212.803    -296.739     365.063
  C     -213.774    -298.711     366.416
  O     -213.114    -297.451     366.469
  O     -213.898    -296.912     364.058
  O     -212.633    -295.192     365.447
  H     -213.459    -294.717     365.237
  H     -213.923    -299.078     367.410
  H     -213.174    -299.405     365.866
  H     -214.722    -298.597     365.932

 6  7  8  9  10  11  12  13  14  15  16  27  31  32  33  34  35 0
 6-311+G(2d,p)
 ****
 36  37 0
 6-311+G(2d,p)
 ****
 1  2  3  4  5  17  18  19  20  21  22  23  24  25 0
 3-21G
 ****
 26  28  29  30  38  39  40  41  42  43  44  45 0
 3-21G
 ****


