%nproc=1
%NoSave
%Mem=1900MB
#P OB98/GEN NMR

erre ene a

0 1
  C      355.235      11.890     -70.387
  O      355.659      11.503     -69.089
  P      356.316      12.635     -68.157
  C      355.268      14.621     -66.852
  O      355.216      13.795     -68.009
  C      354.686      16.008     -67.132
  O      355.547      16.699     -68.069
  C      353.270      15.986     -67.717
  O      352.553      17.092     -67.168
  C      353.496      16.231     -69.197
  O      352.342      16.787     -69.822
  C      354.725      17.154     -69.162
  N      355.460      17.143     -70.424
  C      355.349      18.278     -71.230
  O      354.595      19.195     -70.904
  N      356.051      18.323     -72.407
  C      356.719      17.284     -72.799
  N      357.402      17.380     -73.971
  C      356.761      16.019     -72.036
  C      356.133      16.025     -70.861
  O      357.418      13.291     -69.115
  O      356.904      12.129     -66.884
  H      352.535      16.890     -70.781
  H      358.186      13.602     -68.600
  H      357.304      15.169     -72.426
  H      356.131      15.153     -70.223
  H      354.426      18.188     -68.946
  H      353.741      15.287     -69.699
  H      352.738      15.055     -67.503
  H      354.699      16.579     -66.196
  H      357.347      18.251     -74.483
  H      356.311      14.745     -66.549
  H      357.949      16.619     -74.355
  H      354.731      14.135     -66.033
  P      350.963      16.944     -67.016
  C      349.507      15.764     -65.262
  O      350.757      15.789     -65.920
  O      350.583      16.172     -68.369
  O      350.150      18.182     -66.857
  H      349.617      16.072     -68.430
  H      349.454      14.857     -64.652
  H      348.690      15.750     -65.987
  H      349.415      16.634     -64.604
  H      354.820      11.044     -70.894
  H      356.072      12.261     -70.940
  H      354.493      12.656     -70.306

 3  4  5  6  7  8  9  10  11  12  13  21  23  27  28  29  30  32 0
 6-311+G(2d,p)
 ****
 34  35 0
 6-311+G(2d,p)
 ****
 1  2  14  15  16  17  18  19  20  22  24  25  26 0
 3-21G
 ****
 31  33  36  37  38  39  40  41  42  43  44  45  46 0
 3-21G
 ****


