%nproc=1
%NoSave
%Mem=1900MB
#P OB98/GEN NMR

erre ene a

0 1
  C       -9.034      -8.609     -18.585
  O       -9.964      -9.459     -17.945
  H       -9.407      -7.583     -18.536
  H       -8.927      -8.892     -19.634
  H       -8.062      -8.651     -18.088
  P       -9.566     -10.992     -17.697
  C      -10.436     -11.188     -15.277
  O      -10.613     -11.576     -16.634
  C      -10.917     -12.300     -14.351
  O      -12.358     -12.377     -14.372
  C      -10.423     -13.689     -14.739
  O       -9.067     -13.863     -14.377
  C      -11.408     -14.562     -13.976
  O      -11.032     -14.670     -12.595
  C      -12.719     -13.755     -14.131
  N      -13.585     -14.263     -15.192
  C      -14.708     -14.977     -14.787
  O      -14.961     -15.217     -13.608
  N      -15.526     -15.425     -15.790
  C      -15.290     -15.303     -17.129
  O      -16.029     -15.770     -17.990
  C      -14.071     -14.570     -17.499
  C      -13.288     -14.091     -16.530
  O       -8.133     -11.246     -17.370
  O       -9.996     -11.717     -19.058
  H      -10.104     -14.976     -12.582
  H       -9.211     -11.855     -19.619
  H      -16.338     -15.955     -15.516
  H      -13.849     -14.459     -18.551
  H      -12.382     -13.552     -16.784
  H      -13.286     -13.771     -13.192
  H      -11.460     -15.578     -14.368
  H      -10.566     -13.856     -15.813
  H      -10.609     -12.050     -13.328
  H      -11.019     -10.279     -15.092
  H       -9.377     -10.972     -15.107
  P       -8.069     -14.687     -15.316
  C       -6.095     -13.057     -15.381
  O       -6.570     -14.302     -14.885
  O       -8.340     -14.584     -16.780
  O       -8.215     -16.196     -14.807
  H       -8.730     -16.716     -15.455
  H       -5.094     -12.895     -15.039
  H       -6.725     -12.268     -15.026
  H       -6.109     -13.071     -16.451

 6  7  8  9  10  11  12  13  14  15  16  26  31  32  33  34  35 0
 6-311+G(2d,p)
 ****
 36  37 0
 6-311+G(2d,p)
 ****
 1  2  3  4  5  17  18  19  20  21  22  23  24  25 0
 3-21G
 ****
 27  28  29  30  38  39  40  41  42  43  44  45 0
 3-21G
 ****


