%nproc=1
%NoSave
%Mem=1900MB
#P OB98/GEN NMR

erre ene a

0 1
  C       19.059      74.505      89.893
  O       19.809      75.706      90.082
  P       19.207      77.124      89.634
  C       20.035      77.154      87.213
  O       18.892      77.086      88.059
  C       19.820      76.493      85.845
  O       18.788      77.178      85.093
  C       21.066      76.439      84.954
  O       20.956      75.228      84.199
  C       20.877      77.651      84.062
  O       21.665      77.591      82.880
  C       19.358      77.623      83.848
  N       18.831      78.921      83.441
  C       18.090      78.960      82.260
  O       17.954      77.945      81.577
  N       17.562      80.161      81.851
  C       17.835      81.241      82.512
  N       17.306      82.404      82.044
  C       18.686      81.259      83.720
  C       19.134      80.074      84.128
  O       19.999      78.310      90.080
  O       17.746      77.146      90.299
  H       22.596      77.417      83.140
  H       17.498      78.068      90.501
  H       18.908      82.188      84.225
  H       19.761      79.980      85.006
  H       19.091      76.885      83.080
  H       21.165      78.559      84.607
  H       22.003      76.466      85.514
  H       19.453      75.476      86.030
  H       16.750      82.352      81.200
  H       20.870      76.661      87.720
  H       17.547      83.312      82.416
  H       20.315      78.204      87.078
  P       21.712      73.887      84.631
  C       24.140      74.478      84.082
  O       23.178      74.314      85.109
  O       21.683      72.793      83.613
  O       20.998      73.429      85.993
  H       21.204      72.492      86.165
  H       25.024      74.968      84.498
  H       23.741      75.093      83.270
  H       24.429      73.499      83.689
  H       19.625      73.671      90.252
  H       18.852      74.374      88.851
  H       18.138      74.571      90.434

 3  4  5  6  7  8  9  10  11  12  13  23  27  28  29  30  32 0
 6-311+G(2d,p)
 ****
 34  35 0
 6-311+G(2d,p)
 ****
 1  2  14  15  16  17  18  19  20  21  22  24  25  26 0
 3-21G
 ****
 31  33  36  37  38  39  40  41  42  43  44  45  46 0
 3-21G
 ****


