%nproc=1
%NoSave
%Mem=1900MB
#P OB98/GEN NMR

erre ene a

0 1
  C      -48.221    -257.781     196.089
  O      -48.500    -258.710     197.111
  H      -47.157    -257.519     196.083
  H      -48.479    -258.225     195.123
  H      -48.822    -256.875     196.231
  P      -48.085    -258.278     198.602
  C      -50.163    -259.165     199.873
  O      -48.777    -259.333     199.593
  C      -50.715    -260.416     200.553
  O      -50.788    -261.511     199.615
  C      -49.872    -260.937     201.711
  O      -50.082    -260.184     202.905
  C      -50.411    -262.354     201.842
  O      -51.647    -262.339     202.579
  C      -50.676    -262.740     200.378
  N      -48.727    -267.484     200.005
  C      -49.793    -267.001     200.685
  N      -50.244    -265.730     200.748
  C      -49.489    -264.916     199.990
  C      -48.376    -265.265     199.239
  C      -47.983    -266.617     199.268
  N      -46.895    -267.100     198.582
  N      -47.857    -264.166     198.587
  C      -48.643    -263.168     198.932
  N      -49.641    -263.572     199.785
  O      -48.922    -256.932     198.846
  O      -46.623    -258.057     198.823
  H      -51.530    -261.706     203.316
  H      -48.392    -256.318     199.393
  H      -50.357    -267.724     201.259
  H      -48.532    -262.145     198.582
  H      -51.637    -263.269     200.268
  H      -49.728    -263.032     202.362
  H      -48.809    -260.974     201.450
  H      -51.741    -260.195     200.887
  H      -50.705    -259.003     198.932
  H      -46.790    -268.095     198.482
  H      -46.352    -266.446     198.030
  H      -50.296    -258.292     200.518
  P      -48.786    -259.552     203.612
  C      -50.090    -257.368     204.152
  O      -49.361    -258.476     204.665
  O      -48.147    -258.637     202.461
  O      -47.807    -260.540     204.144
  H      -47.191    -258.522     202.620
  H      -50.407    -256.744     204.961
  H      -50.947    -257.721     203.618
  H      -49.465    -256.805     203.491

 6  7  8  9  10  11  12  13  14  15  25  28  32  33  34  35 0
 6-311+G(2d,p)
 ****
 36  39  40 0
 6-311+G(2d,p)
 ****
 1  2  3  4  5  16  17  18  19  20  21  22  23  24 0
 3-21G
 ****
 26  27  29  30  31  37  38  41  42  43  44  45  46  47  48 0
 3-21G
 ****


