%nproc=1
%NoSave
%Mem=1900MB
#P OB98/GEN NMR

erre ene a

0 1
  C     -119.905    -643.574     269.363
  O     -119.346    -644.490     270.278
  H     -120.048    -642.618     269.870
  H     -120.877    -643.936     269.016
  H     -119.244    -643.416     268.505
  P     -118.737    -645.862     269.720
  C     -117.503    -646.015     271.984
  O     -118.244    -646.709     270.991
  C     -116.521    -646.961     272.690
  O     -117.253    -648.116     273.180
  C     -115.452    -647.484     271.727
  O     -114.237    -647.808     272.395
  C     -116.077    -648.766     271.195
  O     -115.117    -649.695     270.694
  C     -116.833    -649.265     272.427
  N     -118.508    -653.700     270.553
  C     -117.233    -653.171     270.525
  N     -116.278    -653.924     269.932
  N     -116.927    -652.001     271.027
  C     -117.993    -651.329     271.530
  C     -119.304    -651.740     271.587
  C     -119.625    -653.055     271.062
  O     -120.743    -653.559     271.035
  N     -120.105    -650.784     272.158
  C     -119.281    -649.794     272.442
  N     -117.983    -650.086     272.101
  O     -117.353    -645.412     269.049
  O     -119.600    -646.608     268.749
  H     -115.590    -650.516     270.470
  H     -117.066    -646.069     268.392
  H     -118.685    -654.620     270.181
  H     -119.567    -648.860     272.904
  H     -116.176    -649.864     273.069
  H     -116.739    -648.506     270.368
  H     -116.515    -654.726     269.370
  H     -115.238    -646.790     270.917
  H     -115.435    -653.426     269.631
  H     -116.090    -646.467     273.564
  H     -118.223    -645.607     272.692
  H     -116.971    -645.169     271.542
  P     -113.118    -646.670     272.545
  C     -112.512    -647.364     275.029
  O     -112.101    -647.058     273.713
  O     -113.920    -645.422     273.136
  O     -112.415    -646.332     271.269
  H     -113.928    -644.688     272.495
  H     -111.654    -647.591     275.627
  H     -113.168    -648.209     275.010
  H     -113.026    -646.523     275.447

 6  7  8  9  10  11  12  13  14  15  26  29  33  34 0
 6-311+G(2d,p)
 ****
 36  38  39  40  41 0
 6-311+G(2d,p)
 ****
 1  2  3  4  5  16  17  18  19  20  21  22  23  24  25 0
 3-21G
 ****
 27  28  30  31  32  35  37  42  43  44  45  46  47 0
 3-21G
 ****
 48  49 0
 3-21G
 ****


