%nproc=1
%NoSave
%Mem=1900MB
#P OB98/GEN NMR

erre ene a

0 1
  C     -408.889     362.004     367.038
  O     -409.175     363.240     367.666
  H     -407.929     362.089     366.520
  H     -409.664     361.765     366.305
  H     -408.819     361.206     367.786
  P     -410.564     363.329     368.465
  C     -409.742     364.448     370.657
  O     -410.442     364.610     369.430
  C     -409.437     365.814     371.277
  O     -408.336     366.450     370.586
  C     -410.606     366.793     371.245
  O     -411.497     366.562     372.323
  C     -409.877     368.123     371.356
  O     -409.524     368.417     372.723
  C     -408.619     367.878     370.512
  N     -408.089     371.734     367.299
  C     -407.806     371.654     368.642
  N     -407.365     372.787     369.237
  N     -407.952     370.563     369.355
  C     -408.433     369.521     368.637
  C     -408.735     369.475     367.296
  C     -408.540     370.678     366.515
  O     -408.712     370.800     365.307
  N     -409.180     368.229     366.929
  C     -409.184     367.539     368.057
  N     -408.751     368.285     369.122
  O     -410.493     362.095     369.485
  O     -411.793     363.272     367.622
  H     -409.193     369.329     372.782
  H     -411.393     361.768     369.650
  H     -407.936     372.600     366.803
  H     -409.483     366.504     368.149
  H     -407.739     368.400     370.913
  H     -410.493     368.952     371.010
  H     -407.546     373.701     368.841
  H     -411.127     366.743     370.279
  H     -407.171     372.744     370.225
  H     -409.111     365.635     372.312
  H     -408.797     363.926     370.461
  H     -410.346     363.852     371.342
  P     -412.983     367.165     372.200
  C     -413.890     365.702     374.146
  O     -413.652     367.011     373.650
  O     -413.752     366.075     371.314
  O     -413.049     368.530     371.599
  H     -414.575     366.461     370.954
  H     -414.337     365.764     375.116
  H     -412.963     365.172     374.213
  H     -414.550     365.184     373.482

 6  7  8  9  10  11  12  13  14  15  26  29  33  34 0
 6-311+G(2d,p)
 ****
 36  38  39  40  41 0
 6-311+G(2d,p)
 ****
 1  2  3  4  5  16  17  18  19  20  21  22  23  24  25 0
 3-21G
 ****
 27  28  30  31  32  35  37  42  43  44  45  46  47 0
 3-21G
 ****
 48  49 0
 3-21G
 ****


