%nproc=1
%NoSave
%Mem=1900MB
#P OB98/GEN NMR

erre ene a

0 1
  C      -11.785    -318.582      -3.658
  O      -11.975    -317.344      -4.311
  H      -12.573    -318.707      -2.912
  H      -10.816    -318.584      -3.149
  H      -11.833    -319.413      -4.363
  P      -11.189    -317.064      -5.678
  C       -8.849    -317.950      -5.037
  O      -10.030    -318.170      -5.795
  C       -7.961    -319.200      -5.026
  O       -6.700    -318.888      -4.382
  C       -8.613    -320.314      -4.207
  O       -8.232    -321.611      -4.660
  C       -8.049    -320.087      -2.814
  O       -8.109    -321.247      -1.989
  C       -6.630    -319.624      -3.147
  N       -4.916    -319.344       1.642
  C       -5.579    -320.376       1.014
  N       -5.841    -321.471       1.765
  N       -5.967    -320.334      -0.234
  C       -5.706    -319.149      -0.841
  C       -5.076    -318.047      -0.314
  C       -4.616    -318.120       1.057
  O       -4.036    -317.228       1.672
  N       -5.009    -317.022      -1.229
  C       -5.599    -317.503      -2.304
  N       -6.029    -318.797      -2.122
  O      -10.361    -315.726      -5.372
  O      -12.044    -316.913      -6.898
  H       -7.637    -321.964      -2.454
  H      -10.165    -315.250      -6.200
  H       -4.625    -319.435       2.603
  H       -5.738    -316.963      -3.232
  H       -5.969    -320.489      -3.302
  H       -8.646    -319.310      -2.321
  H       -5.719    -321.480       2.766
  H       -9.703    -320.244      -4.214
  H       -6.568    -322.102       1.417
  H       -7.727    -319.507      -6.052
  H       -9.161    -317.703      -4.015
  H       -8.301    -317.089      -5.432
  P       -9.365    -322.532      -5.319
  C      -10.594    -323.176      -3.095
  O      -10.640    -322.516      -4.346
  O       -8.778    -324.012      -5.180
  O       -9.672    -322.180      -6.740
  H       -8.460    -324.333      -6.045
  H      -11.531    -323.055      -2.593
  H       -9.813    -322.754      -2.498
  H      -10.403    -324.218      -3.248

 6  7  8  9  10  11  12  13  14  15  26  29  33  34 0
 6-311+G(2d,p)
 ****
 36  38  39  40  41 0
 6-311+G(2d,p)
 ****
 1  2  3  4  5  16  17  18  19  20  21  22  23  24  25 0
 3-21G
 ****
 27  28  30  31  32  35  37  42  43  44  45  46  47 0
 3-21G
 ****
 48  49 0
 3-21G
 ****


