%nproc=1
%NoSave
%Mem=1900MB
#P OB98/GEN NMR

erre ene a

0 1
  C       38.965     112.403      57.261
  O       38.737     113.422      58.212
  H       39.856     112.654      56.681
  H       38.111     112.344      56.581
  H       39.120     111.437      57.750
  P       37.736     113.089      59.421
  C       35.941     114.839      58.745
  O       36.258     113.465      58.912
  C       34.621     114.992      57.990
  O       33.574     114.298      58.736
  C       34.169     116.452      57.805
  O       33.539     116.581      56.523
  C       33.107     116.614      58.875
  O       32.192     117.662      58.576
  C       32.479     115.223      58.865
  N       28.497     112.726      60.622
  C       29.157     112.626      59.413
  N       28.647     111.772      58.501
  N       30.230     113.311      59.120
  C       30.647     114.116      60.126
  C       30.082     114.306      61.362
  C       28.884     113.557      61.672
  O       28.241     113.616      62.716
  N       30.772     115.257      62.077
  C       31.739     115.649      61.265
  N       31.703     114.986      60.069
  O       38.073     114.240      60.482
  O       37.881     111.727      60.012
  H       32.701     118.491      58.464
  H       38.725     113.912      61.129
  H       27.664     112.188      60.792
  H       32.469     116.414      61.485
  H       31.802     115.073      58.013
  H       33.578     116.828      59.842
  H       27.841     111.186      58.666
  H       34.980     117.183      57.892
  H       29.143     111.658      57.626
  H       34.710     114.489      57.020
  H       36.739     115.324      58.173
  H       35.876     115.315      59.729
  P       34.442     117.043      55.282
  C       34.280     119.577      55.854
  O       35.121     118.451      55.638
  O       33.356     117.431      54.170
  O       35.378     115.990      54.788
  H       33.698     117.207      53.283
  H       34.881     120.433      56.080
  H       33.621     119.378      56.673
  H       33.705     119.767      54.972

 6  7  8  9  10  11  12  13  14  15  26  29  33  34 0
 6-311+G(2d,p)
 ****
 36  38  39  40  41 0
 6-311+G(2d,p)
 ****
 1  2  3  4  5  16  17  18  19  20  21  22  23  24  25 0
 3-21G
 ****
 27  28  30  31  32  35  37  42  43  44  45  46  47 0
 3-21G
 ****
 48  49 0
 3-21G
 ****


