%nproc=1
%NoSave
%Mem=1900MB
#P OB98/GEN NMR

erre ene a

0 1
  C     -896.820    -836.683    1856.589
  O     -895.730    -835.768    1856.348
  P     -894.180    -836.304    1856.324
  C     -893.510    -836.194    1853.781
  O     -893.910    -837.000    1854.884
  C     -894.490    -836.268    1852.652
  O     -895.780    -835.665    1853.035
  C     -894.140    -835.512    1851.383
  O     -893.110    -836.200    1850.606
  C     -895.500    -835.477    1850.638
  O     -895.730    -836.659    1849.899
  C     -896.490    -835.347    1851.801
  N     -897.140    -834.032    1851.875
  C     -898.150    -833.787    1850.948
  O     -898.440    -834.594    1850.068
  N     -898.840    -832.581    1851.079
  C     -898.480    -831.717    1851.900
  N     -899.190    -830.501    1852.009
  C     -897.280    -831.850    1852.851
  C     -896.710    -833.054    1852.757
  O     -893.790    -837.121    1857.492
  O     -893.330    -834.896    1856.243
  H     -892.460    -835.096    1856.636
  H     -895.830    -837.388    1850.555
  H     -897.000    -831.113    1853.558
  H     -895.820    -833.312    1853.386
  H     -897.280    -836.102    1851.693
  H     -895.500    -834.638    1849.888
  H     -893.790    -834.483    1851.633
  H     -894.710    -837.367    1852.392
  H     -900.000    -830.445    1851.323
  H     -892.530    -836.547    1853.413
  H     -898.990    -829.800    1852.631
  H     -893.390    -835.111    1854.128
  P     -891.630    -835.510    1850.707
  C     -890.120    -837.379    1851.812
  O     -890.870    -836.215    1851.991
  O     -891.890    -834.002    1851.185
  O     -890.830    -835.571    1849.434
  H     -891.280    -833.354    1850.721
  H     -889.330    -837.373    1852.569
  H     -889.620    -837.387    1850.833
  H     -890.740    -838.237    1851.887
  H     -897.746    -836.148    1856.566
  H     -896.696    -837.141    1857.548
  H     -896.826    -837.439    1855.831

 3  4  5  6  7  8  9  10  11  12  13  24  27  28  29  30  32 0
 6-311+G(2d,p)
 ****
 34  35 0
 6-311+G(2d,p)
 ****
 1  2  14  15  16  17  18  19  20  21  22  23  25  26 0
 3-21G
 ****
 31  33  36  37  38  39  40  41  42  43  44  45  46 0
 3-21G
 ****


