%nproc=1
%NoSave
%Mem=1900MB
#P OB98/GEN NMR

erre ene a

0 1
  C      -56.866     404.107      10.749
  O      -56.081     404.147       9.575
  H      -56.666     404.986      11.367
  H      -57.923     404.107      10.469
  H      -56.649     403.197      11.318
  P      -54.489     404.190       9.769
  C      -52.813     406.079      10.394
  O      -54.171     405.669      10.304
  C      -52.757     407.554      10.781
  O      -53.544     407.785      11.974
  C      -51.353     408.051      11.108
  O      -50.610     408.384       9.949
  C      -51.676     409.286      11.930
  O      -52.078     410.360      11.062
  C      -52.869     408.799      12.766
  N      -51.266     409.827      17.520
  C      -51.619     410.633      16.494
  N      -52.056     410.280      15.267
  C      -52.122     408.944      15.153
  C      -51.802     407.998      16.113
  C      -51.348     408.489      17.349
  N      -50.956     407.671      18.389
  N      -51.977     406.723      15.615
  C      -52.412     406.896      14.384
  N      -52.486     408.223      14.045
  O      -53.922     404.220       8.271
  O      -53.902     403.094      10.594
  H      -51.299     410.596      10.520
  H      -52.967     404.021       8.266
  H      -51.539     411.698      16.683
  H      -52.680     406.104      13.697
  H      -53.592     409.597      12.976
  H      -50.818     409.647      12.507
  H      -50.811     407.336      11.737
  H      -53.203     408.142       9.970
  H      -52.330     405.936       9.423
  H      -50.509     408.114      19.177
  H      -50.876     406.681      18.221
  H      -52.301     405.473      11.146
  P      -49.008     408.370      10.068
  C      -47.292     409.524      11.642
  O      -48.622     409.506      11.137
  O      -48.542     409.005       8.674
  O      -48.412     407.022      10.304
  H      -47.691     408.625       8.387
  H      -47.186     410.329      12.338
  H      -46.605     409.659      10.833
  H      -47.085     408.597      12.135

 6  7  8  9  10  11  12  13  14  15  25  28  32  33  34  35 0
 6-311+G(2d,p)
 ****
 36  39  40 0
 6-311+G(2d,p)
 ****
 1  2  3  4  5  16  17  18  19  20  21  22  23  24 0
 3-21G
 ****
 26  27  29  30  31  37  38  41  42  43  44  45  46  47 0
 3-21G
 ****
 48 0
 3-21G
 ****


