%nproc=1
%NoSave
%Mem=1900MB
#P OB98/GEN NMR

erre ene a

0 1
  C     -401.996      59.043     423.017
  O     -402.528      58.694     424.281
  H     -401.999      60.131     422.924
  H     -402.612      58.616     422.220
  H     -400.969      58.682     422.926
  P     -402.593      57.126     424.618
  C     -405.014      56.723     423.737
  O     -403.625      56.489     423.566
  C     -405.805      56.113     422.574
  O     -405.281      56.646     421.320
  C     -405.697      54.580     422.484
  O     -406.907      54.085     421.882
  C     -404.538      54.409     421.514
  O     -404.467      53.085     421.034
  C     -404.878      55.512     420.515
  N     -402.403      54.384     416.185
  C     -403.521      53.868     416.744
  N     -404.126      54.229     417.892
  C     -403.476      55.248     418.475
  C     -402.330      55.888     418.018
  C     -401.781      55.409     416.817
  N     -400.643      55.930     416.251
  N     -401.950      56.893     418.892
  C     -402.856      56.863     419.854
  N     -403.787      55.882     419.648
  O     -403.389      57.082     426.005
  O     -401.275      56.431     424.705
  H     -403.751      52.992     420.373
  H     -402.757      57.047     426.749
  H     -403.987      53.054     416.192
  H     -402.875      57.517     420.718
  H     -405.731      55.237     419.880
  H     -403.584      54.611     422.007
  H     -405.548      54.097     423.452
  H     -406.852      56.434     422.644
  H     -405.181      57.807     423.773
  H     -405.348      56.277     424.677
  H     -400.306      55.520     415.392
  H     -400.161      56.683     416.719
  P     -408.170      53.763     422.819
  C     -407.671      51.240     423.301
  O     -407.782      52.559     423.808
  O     -409.169      53.035     421.794
  O     -408.832      54.945     423.451
  H     -410.090      53.177     422.078
  H     -407.407      50.574     424.095
  H     -406.914      51.211     422.545
  H     -408.608      50.940     422.880

 6  7  8  9  10  11  12  13  14  15  25  28  32  33  34  35 0
 6-311+G(2d,p)
 ****
 36  37  40 0
 6-311+G(2d,p)
 ****
 1  2  3  4  5  16  17  18  19  20  21  22  23  24 0
 3-21G
 ****
 26  27  29  30  31  38  39 41  42  43  44  45  46  47  48 0
 3-21G
 ****


