%nproc=1
%NoSave
%Mem=1900MB
#P OB98/GEN NMR

erre ene a

0 1
  C      -17.793     262.365    -722.232
  O      -18.009     263.609    -722.877
  H      -18.447     262.272    -721.360
  H      -18.034     261.558    -722.940
  H      -16.745     262.268    -721.932
  P      -17.681     264.921    -722.016
  C      -19.896     265.133    -720.674
  O      -19.093     265.639    -721.735
  C      -21.215     265.904    -720.605
  O      -20.957     267.294    -720.327
  C      -22.033     265.887    -721.891
  O      -22.762     264.680    -722.040
  C      -22.954     267.073    -721.655
  O      -24.029     266.680    -720.780
  C      -22.029     268.067    -720.947
  N      -23.011     271.800    -724.317
  C      -23.819     271.050    -723.523
  N      -23.483     270.095    -722.638
  C      -22.149     269.945    -722.594
  C      -21.193     270.637    -723.319
  C      -21.672     271.601    -724.225
  N      -20.835     272.310    -725.070
  N      -19.925     270.192    -723.007
  C      -20.116     269.228    -722.129
  N      -21.438     269.047    -721.840
  O      -16.969     265.884    -723.086
  O      -16.822     264.697    -720.818
  H      -24.480     265.927    -721.209
  H      -16.003     265.806    -722.996
  H      -24.889     271.259    -723.624
  H      -19.327     268.637    -721.678
  H      -22.539     268.614    -720.140
  H      -23.409     267.454    -722.579
  H      -21.413     266.091    -722.776
  H      -21.798     265.500    -719.765
  H      -19.359     265.246    -719.724
  H      -21.279     272.595    -725.941
  H      -19.896     271.936    -725.147
  H      -20.090     264.068    -720.855
  P      -22.183     263.560    -723.031
  C      -24.249     264.011    -724.519
  O      -23.414     263.034    -723.907
  O      -21.853     262.352    -722.052
  O      -20.957     263.977    -723.810
  H      -20.912     262.084    -722.140
  H      -25.025     263.522    -725.069
  H      -23.665     264.613    -725.184
  H      -24.684     264.632    -723.764

 6  7  8  9  10  11  12  13  14  15  25  28  32  33  34  35 0
 6-311+G(2d,p)
 ****
 36  39  40 0
 6-311+G(2d,p)
 ****
 1  2  3  4  5  16  17  18  19  20  21  22  23  24 0
 3-21G
 ****
 26  27  29  30  31  37  38  41  42  43  44  45  46  47  48 0
 3-21G
 ****


