%nproc=1
%NoSave
%Mem=1900MB
#P OB98/GEN NMR

erre ene a

0 1
  C     -386.631     147.236    -283.377
  O     -387.628     147.812    -282.529
  P     -387.331     149.280    -281.959
  C     -389.231     150.786    -282.887
  O     -387.885     150.349    -283.017
  C     -390.087     150.193    -284.006
  O     -390.145     148.752    -283.928
  C     -391.537     150.656    -283.969
  O     -391.660     151.987    -284.439
  C     -392.195     149.606    -284.858
  O     -391.979     149.914    -286.245
  C     -391.416     148.336    -284.482
  N     -394.340     144.179    -283.896
  C     -393.805     144.759    -284.993
  N     -393.040     145.868    -285.065
  C     -392.827     146.380    -283.843
  C     -393.302     145.896    -282.635
  C     -394.099     144.740    -282.689
  N     -394.655     144.156    -281.573
  N     -392.879     146.691    -281.591
  C     -392.178     147.652    -282.161
  N     -392.110     147.500    -283.520
  O     -385.741     149.409    -282.084
  O     -387.791     149.481    -280.553
  H     -392.164     150.868    -286.364
  H     -385.332     149.373    -281.200
  H     -394.024     144.270    -285.939
  H     -391.707     148.474    -281.636
  H     -391.200     147.708    -285.355
  H     -393.275     149.530    -284.705
  H     -391.932     150.583    -282.948
  H     -389.632     150.471    -284.967
  H     -389.280     151.878    -282.924
  H     -395.278     143.376    -281.707
  H     -394.554     144.616    -280.680
  H     -389.606     150.488    -281.903
  P     -392.185     153.098    -283.409
  C     -390.009     154.459    -283.321
  O     -390.853     153.555    -282.633
  O     -392.932     152.199    -282.320
  O     -392.989     154.194    -284.018
  H     -392.403     151.420    -282.068
  H     -389.167     154.712    -282.673
  H     -390.556     155.373    -283.567
  H     -389.628     153.995    -284.233
  H     -386.947     146.262    -283.688
  H     -385.709     147.157    -282.840
  H     -386.491     147.858    -284.237

 3  4  5  6  7  8  9  10  11  12  22  25  29  30  31  32 0
 6-311+G(2d,p)
 ****
 33  36  37 0
 6-311+G(2d,p)
 ****
 1  2  13  14  15  16  17  18  19  20  21  23  24  26 0
 3-21G
 ****
 27  28  34  35  38  39  40  41  42  43  44  45  46  47  48 0
 3-21G
 ****


