%nproc=1
%NoSave
%Mem=1900MB
#P OB98/GEN NMR

erre ene a

0 1
  C      148.599     -41.763     277.577
  O      148.337     -42.177     276.235
  P      149.321     -43.247     275.561
  C      147.601     -44.169     273.864
  O      148.844     -43.495     274.045
  C      147.005     -43.850     272.484
  O      146.682     -42.436     272.427
  C      147.948     -44.108     271.301
  O      147.947     -45.399     270.704
  C      147.379     -43.148     270.256
  O      146.259     -43.760     269.587
  C      146.892     -41.960     271.080
  N      147.378     -36.928     271.872
  C      146.314     -37.754     271.952
  N      146.271     -39.086     271.726
  C      147.483     -39.556     271.394
  C      148.660     -38.830     271.277
  C      148.579     -37.454     271.529
  N      149.658     -36.604     271.436
  N      149.707     -39.656     270.911
  C      149.165     -40.853     270.793
  N      147.828     -40.846     271.091
  O      149.591     -44.478     276.354
  O      150.666     -42.394     275.352
  H      146.598     -44.565     269.158
  H      151.435     -42.974     275.520
  H      145.375     -37.289     272.237
  H      149.696     -41.743     270.500
  H      145.935     -41.563     270.723
  H      148.108     -42.897     269.478
  H      148.976     -43.815     271.549
  H      146.077     -44.417     272.353
  H      146.903     -43.859     274.648
  H      149.507     -35.622     271.590
  H      150.549     -36.964     271.122
  H      147.782     -45.235     274.008
  P      149.315     -46.145     270.319
  C      149.357     -48.280     271.836
  O      149.045     -47.702     270.582
  O      150.534     -45.606     270.989
  O      149.327     -46.043     268.726
  H      148.645     -46.573     268.283
  H      148.907     -49.274     271.879
  H      148.960     -47.676     272.654
  H      150.440     -48.383     271.930
  H      147.860     -41.052     277.882
  H      149.569     -41.314     277.629
  H      148.565     -42.613     278.226

 3  4  5  6  7  8  9  10  11  12  22  25  29  30  31  32 0
 6-311+G(2d,p)
 ****
 33  36  37 0
 6-311+G(2d,p)
 ****
 1  2  13  14  15  16  17  18  19  20  21  23  24  26 0
 3-21G
 ****
 27  28  34  35  38  39  40  41  42  43  44  45  46  47  48 0
 3-21G
 ****


