%nproc=1
%NoSave
%Mem=1900MB
#P OB98/GEN NMR

erre ene a

0 1
  C       38.655     -81.726       8.564
  O       39.412     -82.470       7.600
  P       39.052     -82.514       6.036
  C       38.998     -80.769       4.124
  O       39.579     -81.153       5.365
  C       39.488     -79.382       3.701
  O       39.019     -78.378       4.632
  C       40.998     -79.202       3.690
  O       41.614     -79.861       2.599
  C       41.117     -77.679       3.653
  O       41.014     -77.180       2.312
  C       39.892     -77.235       4.475
  N       40.249     -76.668       5.765
  C       40.567     -75.307       5.786
  O       40.616     -74.663       4.739
  N       40.836     -74.715       6.995
  C       40.891     -75.439       8.069
  N       41.145     -74.795       9.241
  C       40.697     -76.901       8.068
  C       40.380     -77.444       6.895
  O       37.615     -82.804       5.753
  O       40.002     -83.641       5.415
  H       39.585     -84.016       4.616
  H       40.159     -77.495       1.959
  H       40.793     -77.473       8.980
  H       40.206     -78.511       6.807
  H       39.305     -76.501       3.910
  H       42.074     -77.330       4.054
  H       41.414     -79.575       4.635
  H       39.070     -79.161       2.710
  H       41.262     -73.790       9.207
  H       37.909     -80.737       4.246
  H       41.186     -75.261      10.136
  H       39.240     -81.519       3.365
  P       42.709     -80.979       2.950
  C       42.788     -83.052       4.509
  O       41.986     -82.113       3.821
  O       43.674     -80.247       3.998
  O       43.474     -81.486       1.771
  H       44.598     -80.505       3.829
  H       42.239     -83.406       5.385
  H       43.734     -82.613       4.837
  H       42.990     -83.902       3.852
  H       39.089     -81.853       9.534
  H       37.646     -82.081       8.576
  H       38.665     -80.689       8.302

 3  4  5  6  7  8  9  10  11  12  13  24  27  28  29  30  32 0
 6-311+G(2d,p)
 ****
 34  35 0
 6-311+G(2d,p)
 ****
 1  2  14  15  16  17  18  19  20  21  22  23  25  26 0
 3-21G
 ****
 31  33  36  37  38  39  40  41  42  43  44  45  46 0
 3-21G
 ****


