%nproc=1
%NoSave
%Mem=1900MB
#P OB98/GEN NMR

erre ene a

0 1
  C     -223.281     538.427     525.623
  O     -223.367     537.306     526.497
  P     -224.715     536.536     526.871
  C     -223.809     534.083     526.669
  O     -224.326     535.122     527.503
  C     -223.667     532.738     527.423
  O     -222.564     532.815     528.347
  C     -224.918     532.449     528.241
  O     -226.057     531.871     527.627
  C     -224.416     531.682     529.474
  O     -224.480     530.262     529.285
  C     -222.958     532.138     529.583
  N     -223.258     532.736     534.646
  C     -223.717     531.692     533.871
  N     -224.368     530.700     534.513
  N     -223.544     531.646     532.569
  C     -222.954     532.743     532.053
  C     -222.485     533.847     532.713
  C     -222.614     533.876     534.157
  O     -222.237     534.796     534.903
  N     -221.947     534.776     531.857
  C     -222.127     534.238     530.662
  N     -222.721     533.003     530.721
  O     -225.784     536.547     525.812
  O     -225.278     537.380     528.139
  H     -223.933     529.842     529.963
  H     -226.259     537.334     528.083
  H     -223.399     532.737     535.660
  H     -221.820     534.697     529.720
  H     -222.269     531.262     529.684
  H     -225.010     531.925     530.348
  H     -224.627     530.753     535.486
  H     -225.281     533.420     528.623
  H     -224.891     530.035     533.907
  H     -223.405     531.920     526.706
  H     -222.836     534.426     526.316
  H     -224.435     533.953     525.784
  P     -227.573     531.909     528.181
  C     -228.903     531.801     525.991
  O     -228.501     531.092     527.155
  O     -228.020     533.430     527.939
  O     -227.729     531.526     529.636
  H     -228.827     533.642     528.472
  H     -229.748     531.270     525.534
  H     -228.087     531.824     525.267
  H     -229.224     532.831     526.254
  H     -222.262     538.745     525.550
  H     -223.877     539.227     526.009
  H     -223.639     538.151     524.653

 3  4  5  6  7  8  9  10  11  12  23  26  30  31 0
 6-311+G(2d,p)
 ****
 33  35  36  37  38 0
 6-311+G(2d,p)
 ****
 1  2  13  14  15  16  17  18  19  20  21  22  24  25 0
 3-21G
 ****
 27  28  29  32  34  39  40  41  42  43  44  45  46  47  48  49 0
 3-21G
 ****


