%nproc=1
%NoSave
%Mem=1900MB
#P OB98/GEN NMR

erre ene a

0 1
  C     -131.750     216.785    -187.342
  O     -132.461     217.356    -188.423
  H     -131.667     217.533    -186.546
  H     -130.740     216.487    -187.649
  H     -132.289     215.919    -186.952
  P     -132.494     216.551    -189.814
  C     -134.744     217.353    -190.807
  O     -133.321     217.486    -190.830
  C     -135.418     218.728    -190.895
  O     -135.309     219.418    -189.630
  C     -134.781     219.659    -191.917
  O     -134.985     219.266    -193.263
  C     -135.259     221.025    -191.451
  O     -136.539     221.388    -191.963
  C     -135.337     220.830    -189.912
  N     -134.286     221.551    -189.208
  C     -134.610     222.842    -188.790
  O     -135.703     223.376    -189.001
  N     -133.618     223.526    -188.144
  C     -132.343     223.071    -187.928
  O     -131.477     223.753    -187.377
  C     -132.055     221.715    -188.414
  C     -133.028     221.027    -189.028
  O     -133.002     215.137    -189.738
  O     -130.992     216.664    -190.354
  H     -137.135     220.630    -191.811
  H     -130.815     215.995    -191.060
  H     -133.827     224.455    -187.820
  H     -131.053     221.323    -188.271
  H     -132.839     220.021    -189.399
  H     -136.306     221.204    -189.536
  H     -134.563     221.818    -191.751
  H     -133.696     219.637    -191.758
  H     -136.483     218.573    -191.108
  H     -135.017     216.880    -189.858
  H     -135.070     216.715    -191.633
  P     -134.001     219.674    -194.453
  C     -134.278     217.316    -195.508
  O     -134.311     218.721    -195.713
  O     -132.572     219.939    -194.086
  O     -134.638     221.081    -194.926
  H     -133.903     221.661    -195.214
  H     -134.502     216.816    -196.427
  H     -135.004     217.046    -194.769
  H     -133.304     217.027    -195.173

 6  7  8  9  10  11  12  13  14  15  16  26  31  32  33  34  35 0
 6-311+G(2d,p)
 ****
 36  37 0
 6-311+G(2d,p)
 ****
 1  2  3  4  5  17  18  19  20  21  22  23  24  25 0
 3-21G
 ****
 27  28  29  30  38  39  40  41  42  43  44  45 0
 3-21G
 ****


