%nproc=1
%NoSave
%Mem=1900MB
#P OB98/GEN NMR

erre ene a

0 1
  C      311.625     -95.722     139.856
  O      310.616     -95.007     139.121
  P      309.327     -95.807     138.584
  C      308.655     -97.301     136.547
  O      309.646     -96.488     137.163
  C      308.836     -97.336     135.019
  O      308.751     -95.981     134.467
  C      310.173     -97.926     134.548
  O      309.933     -98.587     133.300
  C      311.017     -96.678     134.321
  O      312.136     -96.909     133.479
  C      309.967     -95.744     133.731
  N      310.332     -94.321     133.774
  C      311.305     -93.868     132.886
  O      311.917     -94.591     132.100
  N      311.570     -92.526     132.952
  C      311.016     -91.621     133.808
  O      311.322     -90.442     133.836
  C      310.021     -92.171     134.746
  C      309.726     -93.472     134.683
  O      308.335     -94.615     138.176
  O      308.665     -96.707     139.583
  H      311.811     -96.912     132.559
  H      307.442     -94.802     138.515
  H      312.257     -92.168     132.298
  H      309.556     -91.488     135.451
  H      308.988     -93.896     135.363
  H      309.766     -96.030     132.688
  H      311.394     -96.323     135.289
  H      310.616     -98.623     135.273
  H      307.999     -97.904     134.593
  H      307.661     -96.900     136.777
  H      308.715     -98.314     136.960
  P      309.261    -100.055     133.331
  C      310.208    -102.495     133.365
  O      310.458    -101.117     133.464
  O      308.818    -100.196     131.794
  O      308.138    -100.196     134.295
  H      309.505     -99.917     131.175
  H      309.487    -102.721     132.572
  H      309.828    -102.871     134.330
  H      311.146    -103.014     133.132
  H      312.407     -95.048     140.137
  H      312.029     -96.500     139.243
  H      311.190     -96.150     140.735

 3  4  5  6  7  8  9  10  11  12  13  23  28  29  30  31  32 0
 6-311+G(2d,p)
 ****
 33  34 0
 6-311+G(2d,p)
 ****
 1  2  14  15  16  17  18  19  20  21  22  24  25  26 0
 3-21G
 ****
 27  35  36  37  38  39  40  41  42  43  44  45 0
 3-21G
 ****


