%nproc=1
%NoSave
%Mem=1900MB
#P OB98/GEN NMR

erre ene a

0 1
  C     -684.732    -338.836    1322.900
  O     -685.407    -339.485    1323.973
  P     -685.193    -341.007    1324.409
  C     -687.374    -342.008    1323.311
  O     -686.617    -341.713    1324.490
  C     -688.126    -343.347    1323.470
  O     -687.184    -344.366    1323.883
  C     -689.235    -343.299    1324.529
  O     -690.429    -343.956    1324.139
  C     -688.531    -343.816    1325.778
  O     -689.416    -344.276    1326.779
  C     -687.570    -344.851    1325.183
  N     -685.784    -345.699    1329.894
  C     -687.059    -345.326    1329.498
  N     -687.973    -345.129    1330.476
  N     -687.404    -345.137    1328.241
  C     -686.364    -345.268    1327.382
  C     -685.063    -345.621    1327.662
  C     -684.714    -345.873    1329.037
  O     -683.617    -346.216    1329.454
  N     -684.313    -345.668    1326.500
  C     -685.139    -345.338    1325.556
  N     -686.411    -345.099    1326.029
  O     -684.258    -341.235    1325.536
  O     -684.544    -341.690    1323.087
  H     -688.898    -344.483    1327.572
  H     -683.945    -342.397    1323.413
  H     -685.584    -345.837    1330.866
  H     -684.885    -345.283    1324.505
  H     -688.062    -345.820    1325.060
  H     -687.957    -342.972    1326.206
  H     -687.755    -345.142    1331.455
  H     -689.554    -342.267    1324.699
  H     -688.831    -344.649    1330.187
  H     -688.529    -343.637    1322.478
  H     -686.654    -342.075    1322.492
  H     -688.059    -341.182    1323.091
  P     -691.673    -343.366    1323.315
  C     -693.648    -342.924    1324.876
  O     -693.024    -343.864    1324.011
  O     -691.664    -344.190    1321.930
  O     -691.610    -341.890    1323.050
  H     -691.535    -343.558    1321.181
  H     -694.408    -343.466    1325.477
  H     -694.181    -342.167    1324.287
  H     -692.932    -342.461    1325.535
  H     -685.065    -337.822    1322.830
  H     -684.946    -339.346    1321.984
  H     -683.677    -338.853    1323.080

 3  4  5  6  7  8  9  10  11  12  23  26  30  31 0
 6-311+G(2d,p)
 ****
 33  35  36  37  38 0
 6-311+G(2d,p)
 ****
 1  2  13  14  15  16  17  18  19  20  21  22  24  25 0
 3-21G
 ****
 27  28  29  32  34  39  40  41  42  43  44  45  46  47  48  49 0
 3-21G
 ****


