%nproc=1
%NoSave
%Mem=1900MB
#P OB98/GEN NMR

erre ene a

0 1
  C       80.438     -29.799     223.523
  O       80.077     -31.185     223.524
  P       78.555     -31.521     223.926
  C       79.154     -33.217     225.800
  O       78.522     -33.005     224.545
  C       80.271     -34.258     225.708
  O       79.743     -35.474     225.123
  C       81.474     -33.836     224.856
  O       82.668     -34.350     225.463
  C       81.264     -34.591     223.556
  O       82.480     -34.764     222.832
  C       80.647     -35.883     224.084
  N       81.092     -39.350     220.429
  C       82.021     -38.920     221.356
  N       83.250     -39.478     221.281
  N       81.770     -38.024     222.274
  C       80.490     -37.577     222.250
  C       79.475     -37.933     221.391
  C       79.782     -38.894     220.354
  O       79.017     -39.277     219.471
  N       78.313     -37.260     221.680
  C       78.628     -36.495     222.705
  N       79.939     -36.646     223.083
  O       77.831     -31.675     222.507
  O       77.906     -30.468     224.757
  H       82.822     -33.873     222.630
  H       77.075     -31.060     222.451
  H       81.345     -40.027     219.732
  H       77.960     -35.800     223.195
  H       81.406     -36.534     224.534
  H       80.563     -34.035     222.922
  H       83.491     -40.218     220.642
  H       81.566     -32.756     224.706
  H       83.930     -39.208     221.980
  H       80.595     -34.504     226.726
  H       78.409     -33.554     226.528
  H       79.557     -32.262     226.155
  P       83.598     -33.285     226.221
  C       85.968     -34.194     225.653
  O       84.936     -34.073     226.613
  O       82.856     -33.078     227.624
  O       83.785     -32.002     225.483
  H       83.053     -32.194     227.984
  H       85.806     -33.547     224.787
  H       86.019     -35.232     225.315
  H       86.919     -33.925     226.120
  H       81.466     -29.698     223.242
  H       80.294     -29.392     224.502
  H       79.824     -29.271     222.824

 3  4  5  6  7  8  9  10  11  12  23  26  30  31  33  0
 6-311+G(2d,p)
 ****
 35  36  37  38 0
 6-311+G(2d,p)
 ****
 1  2  13  14  15  16  17  18  19  20  21  22  24  25  27  28  29 0
 3-21G
 ****
 32  34  39  40  41  42  43  44  45  46  47  48  49 0
 3-21G
 ****


