%nproc=1
%NoSave
%Mem=1900MB
#P OB98/GEN NMR

erre ene a

0 1
  C      -66.192      10.830    -349.990
  O      -65.557      10.712    -351.242
  P      -65.756      11.840    -352.367
  C      -64.851      10.213    -354.145
  O      -65.929      11.058    -353.758
  C      -65.381       8.857    -354.597
  O      -65.882       8.089    -353.468
  C      -66.565       8.939    -355.549
  O      -66.332       9.489    -356.829
  C      -67.089       7.512    -355.495
  O      -66.334       6.647    -356.345
  C      -66.850       7.154    -354.007
  N      -68.095       7.160    -353.240
  C      -68.414       5.975    -352.585
  O      -67.717       4.963    -352.630
  N      -69.595       5.974    -351.894
  C      -70.489       7.005    -351.831
  O      -71.552       6.918    -351.228
  C      -70.104       8.224    -352.557
  C      -68.944       8.249    -353.218
  O      -64.719      12.910    -352.381
  O      -67.240      12.375    -352.092
  H      -66.646       6.791    -357.260
  H      -67.937      11.698    -352.163
  H      -69.854       5.121    -351.424
  H      -70.787       9.066    -352.515
  H      -68.639       9.139    -353.759
  H      -66.402       6.155    -353.923
  H      -68.133       7.450    -355.818
  H      -67.330       9.578    -355.090
  H      -64.552       8.288    -355.029
  H      -64.187      10.069    -353.285
  H      -64.270      10.698    -354.938
  P      -66.672      11.008    -357.210
  C      -65.982      10.972    -359.707
  O      -67.034      11.066    -358.770
  O      -65.753      12.056    -356.674
  O      -68.119      11.189    -356.532
  H      -68.225      12.118    -356.256
  H      -66.402      11.075    -360.713
  H      -65.491       9.999    -359.633
  H      -65.252      11.773    -359.551
  H      -65.939       9.987    -349.381
  H      -67.252      10.864    -350.130
  H      -65.867      11.728    -349.508

 3  4  5  6  7  8  9  10  11  12  13  23  28  29  30  31  32 0
 6-311+G(2d,p)
 ****
 33  34 0
 6-311+G(2d,p)
 ****
 1  2  14  15  16  17  18  19  20  21  22  24  25  26  27 0
 3-21G
 ****
 35  36  37  38  39  40  41  42  43  44  45 0
 3-21G
 ****


