%nproc=1
%NoSave
%Mem=1900MB
#P OB98/GEN NMR

erre ene a

0 1
  C     -113.523     -50.197    -273.513
  O     -112.340     -49.426    -273.483
  H     -114.307     -49.610    -274.002
  H     -113.846     -50.429    -272.495
  H     -113.373     -51.120    -274.079
  P     -110.990     -50.099    -272.945
  C     -109.766     -50.076    -270.672
  O     -111.019     -50.010    -271.341
  C     -109.701     -49.047    -269.540
  O     -109.783     -47.718    -270.115
  C     -110.834     -49.185    -268.519
  O     -110.326     -48.897    -267.213
  C     -111.818     -48.108    -268.936
  O     -112.623     -47.659    -267.847
  C     -110.889     -47.033    -269.494
  N     -113.881     -42.993    -270.009
  C     -113.301     -43.533    -268.880
  N     -113.571     -42.920    -267.708
  N     -112.526     -44.587    -268.896
  C     -112.324     -45.084    -270.140
  C     -112.839     -44.641    -271.334
  C     -113.713     -43.486    -271.300
  O     -114.269     -42.972    -272.267
  N     -112.417     -45.424    -272.381
  C     -111.650     -46.337    -271.818
  N     -111.571     -46.185    -270.460
  O     -109.734     -49.585    -273.576
  O     -111.187     -51.660    -273.225
  H     -112.054     -47.085    -267.289
  H     -110.653     -51.950    -273.986
  H     -114.478     -42.189    -269.939
  H     -111.135     -47.132    -272.345
  H     -110.495     -46.373    -268.712
  H     -112.484     -48.499    -269.716
  H     -114.139     -42.090    -267.624
  H     -111.281     -50.180    -268.526
  H     -113.134     -43.277    -266.866
  H     -108.723     -49.126    -269.055
  H     -108.977     -49.871    -271.401
  H     -109.624     -51.087    -270.273
  P     -110.521     -49.978    -266.045
  C     -112.062     -50.232    -264.004
  O     -111.928     -49.710    -265.319
  O     -109.358     -50.144    -265.125
  O     -110.803     -51.334    -266.862
  H     -110.411     -52.082    -266.372
  H     -113.033     -49.994    -263.623
  H     -111.315     -49.800    -263.371
  H     -111.939     -51.295    -264.028

 6  7  8  9  10  11  12  13  14  15  26  29  33  34 0
 6-311+G(2d,p)
 ****
 36  38  39  40  41 0
 6-311+G(2d,p)
 ****
 1  2  3  4  5  16  17  18  19  20  21  22  23  24  25 0
 3-21G
 ****
 27  28  30  31  32  35  37  42  43  44  45  46  47 0
 3-21G
 ****
 48  49 0
 3-21G
 ****


