%nproc=1
%NoSave
%Mem=1900MB
#P OB98/GEN NMR

erre ene a

0 1
  C        8.694    -217.029     -30.826
  O       10.003    -216.741     -30.375
  P       10.225    -216.109     -28.922
  C       12.208    -215.192     -27.569
  O       11.805    -215.993     -28.675
  C       13.646    -215.521     -27.172
  O       13.761    -216.914     -26.812
  C       14.662    -215.302     -28.286
  O       14.945    -213.925     -28.446
  C       15.832    -216.141     -27.786
  O       16.598    -215.412     -26.814
  C       15.112    -217.324     -27.124
  N       16.124    -222.321     -27.277
  C       16.401    -221.374     -26.355
  N       16.132    -220.050     -26.405
  C       15.532    -219.738     -27.565
  C       15.218    -220.588     -28.614
  C       15.517    -221.947     -28.429
  N       15.185    -222.932     -29.334
  N       14.636    -219.880     -29.651
  C       14.611    -218.630     -29.236
  N       15.080    -218.508     -27.960
  O        9.458    -216.759     -27.818
  O        9.776    -214.583     -29.100
  H       16.857    -214.564     -27.225
  H        9.031    -214.393     -28.500
  H       16.897    -221.725     -25.455
  H       14.248    -217.790     -29.814
  H       15.583    -217.608     -26.175
  H       16.516    -216.429     -28.590
  H       14.287    -215.730     -29.223
  H       13.903    -214.921     -26.290
  H       11.536    -215.399     -26.732
  H       15.315    -223.887     -29.039
  H       14.479    -222.722     -30.035
  H       12.122    -214.134     -27.838
  P       15.846    -213.435     -29.675
  C       15.906    -211.398     -31.231
  O       15.181    -212.087     -30.234
  O       16.151    -214.471     -30.707
  O       17.184    -212.905     -28.972
  H       17.943    -213.056     -29.566
  H       16.726    -210.839     -30.769
  H       15.236    -210.695     -31.731
  H       16.310    -212.094     -31.973
  H        8.739    -217.443     -31.812
  H        8.117    -216.128     -30.844
  H        8.236    -217.733     -30.164

 3  4  5  6  7  8  9  10  11  12  22  25  29  30  31  32 0
 6-311+G(2d,p)
 ****
 33  36  37 0
 6-311+G(2d,p)
 ****
 1  2  13  14  15  16  17  18  19  20  21  23  24  26 0
 3-21G
 ****
 27  28  34  35  38  39  40  41  42  43  44  45  46  47  48 0
 3-21G
 ****


