%nproc=1
%NoSave
%Mem=1900MB
#P OB98/GEN NMR

erre ene a

0 1
  C     -423.164      18.356     581.600
  O     -424.545      18.393     581.965
  P     -425.129      17.950     583.387
  C     -425.302      20.347     584.447
  O     -424.705      19.060     584.461
  C     -426.619      20.413     585.271
  O     -426.290      20.341     586.683
  C     -427.309      21.760     585.045
  O     -428.149      21.932     583.920
  C     -427.985      22.051     586.376
  O     -429.343      21.616     586.414
  C     -427.140      21.269     587.384
  N     -426.943      24.197     591.584
  C     -428.020      23.543     591.025
  N     -429.218      23.726     591.623
  N     -427.945      22.789     589.956
  C     -426.711      22.765     589.404
  C     -425.565      23.375     589.843
  C     -425.656      24.163     591.064
  O     -424.726      24.752     591.611
  N     -424.502      23.137     589.019
  C     -425.006      22.398     588.056
  N     -426.345      22.132     588.251
  O     -424.909      16.524     583.758
  O     -426.714      18.175     583.228
  H     -429.692      21.771     587.304
  H     -427.151      17.484     583.775
  H     -427.054      24.745     592.412
  H     -424.457      22.023     587.200
  H     -427.774      20.672     588.053
  H     -428.004      23.133     586.563
  H     -429.369      24.383     592.375
  H     -426.523      22.515     584.938
  H     -430.041      23.423     591.102
  H     -427.245      19.545     585.049
  H     -425.496      20.590     583.397
  H     -424.594      21.092     584.818
  P     -428.140      23.202     582.927
  C     -426.909      21.953     581.064
  O     -426.880      23.052     581.957
  O     -427.728      24.424     583.865
  O     -429.449      23.468     582.242
  H     -427.953      25.278     583.423
  H     -425.890      21.778     580.687
  H     -427.563      22.175     580.212
  H     -427.252      21.048     581.569
  H     -423.051      18.706     580.595
  H     -422.803      17.351     581.671
  H     -422.603      18.983     582.261

 3  4  5  6  7  8  9  10  11  12  23  26  30  31 0
 6-311+G(2d,p)
 ****
 33  35  36  37  38 0
 6-311+G(2d,p)
 ****
 1  2  13  14  15  16  17  18  19  20  21  22  24  25 0
 3-21G
 ****
 27  28  29  32  34  39  40  41  42  43  44  45  46  47  48  49 0
 3-21G
 ****


