%nproc=1
%NoSave
%Mem=1900MB
#P OB98/GEN NMR

erre ene a

0 1
  C     -404.807      30.350     369.029
  O     -405.665      29.210     368.881
  P     -405.146      27.695     368.966
  C     -404.259      27.668     366.533
  O     -403.944      27.517     367.912
  C     -403.003      27.539     365.666
  O     -402.340      26.280     365.933
  C     -403.240      27.524     364.168
  O     -403.578      28.806     363.659
  C     -401.910      26.975     363.657
  O     -400.934      28.016     363.528
  C     -401.501      26.009     364.790
  N     -401.585      24.610     364.392
  C     -400.498      24.092     363.676
  O     -399.569      24.829     363.338
  N     -400.505      22.758     363.351
  C     -401.547      22.035     363.622
  N     -401.488      20.718     363.290
  C     -402.767      22.574     364.250
  C     -402.716      23.855     364.605
  O     -406.227      26.669     368.821
  O     -404.429      27.570     370.397
  H     -404.456      26.644     370.697
  H     -400.852      28.440     364.403
  H     -403.633      21.943     364.418
  H     -403.567      24.331     365.092
  H     -400.480      26.227     365.116
  H     -402.010      26.500     362.678
  H     -404.043      26.812     363.934
  H     -402.316      28.358     365.942
  H     -400.635      20.374     362.867
  H     -404.689      28.669     366.387
  H     -402.235      20.059     363.478
  H     -405.009      26.921     366.250
  P     -405.137      29.107     363.427
  C     -405.097      28.461     360.912
  O     -405.627      28.203     362.203
  O     -405.140      30.600     362.830
  O     -405.977      29.014     364.655
  H     -405.901      31.091     363.196
  H     -405.126      27.531     360.331
  H     -404.065      28.816     360.964
  H     -405.716      29.210     360.406
  H     -405.384      31.246     368.933
  H     -404.052      30.329     368.271
  H     -404.345      30.326     369.994

 3  4  5  6  7  8  9  10  11  12  13  24  27  28  29  30  32 0
 6-311+G(2d,p)
 ****
 34  35 0
 6-311+G(2d,p)
 ****
 1  2  14  15  16  17  18  19  20  21  22  23  25  26 0
 3-21G
 ****
 31  33  36  37  38  39  40  41  42  43  44  45  46 0
 3-21G
 ****


