%nproc=1
%NoSave
%Mem=1900MB
#P OB98/GEN NMR

erre ene a

0 1
  C      -35.668      25.622      36.779
  O      -36.875      24.937      37.031
  H      -35.827      26.687      36.960
  H      -35.374      25.483      35.735
  H      -34.869      25.271      37.436
  P      -36.846      23.342      37.156
  C      -38.961      22.695      35.825
  O      -38.368      22.837      37.108
  C      -40.491      22.704      35.930
  O      -40.903      21.693      36.886
  C      -41.010      24.048      36.451
  O      -42.327      24.332      35.986
  C      -41.055      23.829      37.955
  O      -41.959      24.709      38.623
  C      -41.452      22.357      38.035
  N      -42.335      21.426      42.968
  C      -42.962      22.320      42.123
  N      -43.957      23.061      42.664
  N      -42.628      22.489      40.870
  C      -41.572      21.734      40.485
  C      -40.855      20.831      41.236
  C      -41.256      20.628      42.612
  O      -40.721      19.865      43.410
  N      -39.843      20.262      40.504
  C      -39.944      20.822      39.315
  N      -40.994      21.704      39.247
  O      -36.449      23.092      38.688
  O      -35.910      22.637      36.223
  H      -41.913      24.506      39.575
  H      -36.067      22.203      38.798
  H      -42.650      21.314      43.915
  H      -39.298      20.613      38.472
  H      -42.543      22.248      37.995
  H      -40.058      24.024      38.359
  H      -44.107      23.101      43.660
  H      -40.357      24.879      36.196
  H      -44.206      23.919      42.163
  H      -40.935      22.429      34.967
  H      -38.609      21.747      35.414
  H      -38.616      23.486      35.158
  P      -42.552      25.625      35.068
  C      -44.786      26.810      35.847
  O      -44.111      25.947      34.959
  O      -42.161      25.124      33.603
  O      -41.753      26.822      35.483
  H      -41.374      25.601      33.279
  H      -45.819      26.867      35.573
  H      -44.349      27.786      35.797
  H      -44.702      26.432      36.845

 6  7  8  9  10  11  12  13  14  15  26  29  33  34 0
 6-311+G(2d,p)
 ****
 36  38  39  40  41 0
 6-311+G(2d,p)
 ****
 1  2  3  4  5  16  17  18  19  20  21  22  23  24  25 0
 3-21G
 ****
 27  28  30  31  32  35  37  42  43  44  45  46  47 0
 3-21G
 ****
 48  49 0
 3-21G
 ****


