%nproc=1
%NoSave
%Mem=1900MB
#P OB98/GEN NMR

erre ene a

0 1
  C     -248.134    -857.603     174.379
  O     -247.195    -858.662     174.267
  H     -248.184    -857.292     175.427
  H     -249.131    -857.952     174.083
  H     -247.830    -856.760     173.762
  P     -247.013    -859.296     172.808
  C     -244.465    -859.486     173.293
  O     -245.652    -860.154     172.860
  C     -243.266    -860.430     173.186
  O     -243.123    -860.911     171.834
  C     -241.944    -859.802     173.567
  O     -241.732    -859.798     174.970
  C     -240.949    -860.702     172.835
  O     -240.714    -861.917     173.573
  C     -241.698    -860.995     171.527
  N     -238.099    -859.657     168.229
  C     -238.119    -860.665     169.159
  N     -236.994    -861.398     169.277
  N     -239.147    -860.936     169.936
  C     -240.209    -860.088     169.734
  C     -240.307    -859.064     168.839
  C     -239.168    -858.800     167.964
  O     -239.118    -857.949     167.067
  N     -241.533    -858.444     168.913
  C     -242.143    -859.097     169.903
  N     -241.362    -860.087     170.434
  O     -246.616    -858.034     171.904
  O     -248.204    -860.015     172.253
  H     -240.555    -861.692     174.518
  H     -246.939    -858.180     170.986
  H     -237.289    -859.502     167.660
  H     -243.157    -858.868     170.234
  H     -241.501    -862.005     171.153
  H     -239.986    -860.206     172.705
  H     -236.097    -861.046     168.988
  H     -241.866    -858.758     173.174
  H     -236.997    -862.139     169.988
  H     -243.480    -861.306     173.820
  H     -244.583    -859.177     174.342
  H     -244.309    -858.610     172.678
  P     -240.617    -858.841     175.567
  C     -241.477    -859.717     177.870
  O     -240.365    -859.312     177.092
  O     -241.351    -857.438     175.738
  O     -239.375    -858.731     174.733
  H     -240.701    -856.708     175.842
  H     -241.145    -859.996     178.848
  H     -241.954    -860.553     177.403
  H     -242.172    -858.907     177.947

 6  7  8  9  10  11  12  13  14  15  26  29  33  34 0
 6-311+G(2d,p)
 ****
 36  38  39  40  41 0
 6-311+G(2d,p)
 ****
 1  2  3  4  5  16  17  18  19  20  21  22  23  24  25 0
 3-21G
 ****
 27  28  30  31  32  35  37  42  43  44  45  46  47 0
 3-21G
 ****
 48  49 0
 3-21G
 ****


