%nproc=1
%NoSave
%Mem=1900MB
#P OB98/GEN NMR

erre ene a

0 1
  C       73.773      -3.769     -60.477
  O       73.768      -5.154     -60.191
  H       74.624      -3.311     -59.966
  H       72.851      -3.303     -60.117
  H       73.878      -3.610     -61.553
  P       72.568      -6.011     -60.822
  C       71.086      -6.160     -58.719
  O       71.271      -5.551     -59.991
  C       69.839      -5.598     -58.034
  O       70.073      -4.202     -57.724
  C       68.581      -5.678     -58.902
  O       67.461      -5.993     -58.077
  C       68.433      -4.267     -59.444
  O       67.085      -3.954     -59.787
  C       69.003      -3.432     -58.299
  N       67.746       1.450     -59.075
  C       67.093       0.433     -58.473
  N       67.510      -0.838     -58.295
  C       68.757      -1.000     -58.772
  C       69.544      -0.061     -59.413
  C       68.986       1.221     -59.568
  N       69.634       2.255     -60.202
  N       70.747      -0.620     -59.798
  C       70.691      -1.872     -59.383
  N       69.499      -2.152     -58.773
  O       72.792      -7.484     -60.892
  O       72.352      -5.282     -62.229
  H       66.539      -4.015     -58.976
  H       72.371      -4.312     -62.135
  H       66.104       0.668     -58.090
  H       71.474      -2.612     -59.514
  H       68.261      -3.226     -57.518
  H       69.045      -4.154     -60.348
  H       68.670      -6.413     -59.702
  H       69.698      -6.116     -57.079
  H       71.962      -5.983     -58.085
  H       69.168       3.146     -60.256
  H       70.568       2.109     -60.560
  H       70.980      -7.238     -58.873
  P       66.804      -7.449     -58.205
  C       64.605      -6.526     -59.192
  O       65.704      -7.413     -59.374
  O       66.364      -8.081     -56.928
  O       67.985      -8.301     -58.881
  H       67.984      -9.200     -58.500
  H       63.948      -6.595     -60.034
  H       64.967      -5.523     -59.103
  H       64.074      -6.794     -58.302

 6  7  8  9  10  11  12  13  14  15  25  28  32  33  34  35 0
 6-311+G(2d,p)
 ****
 36  39  40 0
 6-311+G(2d,p)
 ****
 1  2  3  4  5  16  17  18  19  20  21  22  23  24 0
 3-21G
 ****
 26  27  29  30  31  37  38  41  42  43  44  45  46  47 0
 3-21G
 ****
 48 0
 3-21G
 ****


