%nproc=1
%NoSave
%Mem=1900MB
#P OB98/GEN NMR

erre ene a

0 1
  C     -165.900    -358.942     865.088
  O     -166.473    -357.701     864.721
  H     -166.151    -359.686     864.319
  H     -166.315    -359.284     866.049
  H     -164.817    -358.859     865.155
  P     -166.253    -356.449     865.694
  C     -166.489    -356.075     868.248
  O     -166.809    -356.908     867.130
  C     -167.576    -356.193     869.306
  O     -167.956    -357.569     869.497
  C     -167.148    -355.667     870.679
  O     -167.264    -354.255     870.728
  C     -168.164    -356.380     871.568
  O     -169.437    -355.720     871.474
  C     -168.221    -357.771     870.909
  N     -166.547    -360.148     875.068
  C     -167.513    -359.170     874.930
  N     -168.093    -358.737     876.076
  N     -167.878    -358.652     873.791
  C     -167.166    -359.135     872.736
  C     -166.165    -360.085     872.741
  C     -165.814    -360.695     874.020
  O     -164.978    -361.575     874.175
  N     -165.638    -360.260     871.494
  C     -166.334    -359.451     870.723
  N     -167.261    -358.728     871.429
  O     -166.801    -355.138     865.227
  O     -164.670    -356.395     865.912
  H     -169.308    -354.807     871.801
  H     -164.244    -355.805     865.267
  H     -166.299    -360.494     875.974
  H     -166.211    -359.352     869.654
  H     -169.216    -358.220     870.996
  H     -167.874    -356.387     872.621
  H     -167.658    -358.895     876.973
  H     -166.143    -356.003     870.953
  H     -168.767    -357.991     876.003
  H     -168.466    -355.654     868.942
  H     -166.411    -355.046     867.875
  H     -165.523    -356.372     868.667
  P     -166.240    -353.368     871.587
  C     -165.512    -353.379     874.074
  O     -166.448    -353.846     873.110
  O     -166.336    -351.900     871.375
  O     -164.790    -353.965     871.241
  H     -164.372    -353.547     870.445
  H     -165.767    -353.770     875.037
  H     -165.536    -352.310     874.105
  H     -164.529    -353.706     873.805

 6  7  8  9  10  11  12  13  14  15  26  29  33  34 0
 6-311+G(2d,p)
 ****
 36  38  39  40  41 0
 6-311+G(2d,p)
 ****
 1  2  3  4  5  16  17  18  19  20  21  22  23  24  25 0
 3-21G
 ****
 27  28  30  31  32  35  37  42  43  44  45  46  47 0
 3-21G
 ****
 48  49 0
 3-21G
 ****


