%nproc=1
%NoSave
%Mem=1900MB
#P OB98/GEN NMR

erre ene a

0 1
  C      -90.688     196.811     146.646
  O      -89.365     196.390     146.323
  P      -88.635     196.649     144.930
  C      -86.278     197.033     146.029
  O      -87.321     197.519     145.196
  C      -85.205     198.108     146.255
  O      -84.681     198.525     144.958
  C      -85.764     199.361     146.940
  O      -84.906     199.892     147.943
  C      -86.103     200.265     145.767
  O      -86.222     201.633     146.125
  C      -84.996     199.925     144.773
  N      -84.878     203.208     140.867
  C      -84.504     203.398     142.181
  N      -84.053     204.627     142.511
  N      -84.581     202.472     143.099
  C      -85.121     201.315     142.657
  C      -85.543     201.010     141.383
  C      -85.407     202.027     140.363
  O      -85.704     201.903     139.178
  N      -86.027     199.729     141.311
  C      -85.918     199.268     142.540
  N      -85.363     200.194     143.394
  O      -89.512     197.083     143.804
  O      -88.031     195.204     144.542
  H      -86.376     202.143     145.308
  H      -88.044     195.155     143.565
  H      -84.775     203.949     140.196
  H      -86.207     198.275     142.864
  H      -84.086     200.499     144.957
  H      -87.078     199.950     145.377
  H      -84.084     205.417     141.887
  H      -86.683     199.126     147.489
  H      -83.992     204.823     143.511
  H      -84.382     197.670     146.828
  H      -85.842     196.179     145.498
  H      -86.676     196.666     146.975
  P      -84.888     199.581     149.509
  C      -82.369     199.103     149.553
  O      -83.663     198.598     149.819
  O      -86.165     198.651     149.761
  O      -84.947     200.788     150.386
  H      -86.781     199.098     150.375
  H      -81.662     198.271     149.548
  H      -82.082     199.808     150.338
  H      -82.339     199.601     148.580
  H      -90.926     196.506     147.644
  H      -91.381     196.366     145.963
  H      -90.751     197.877     146.574

 3  4  5  6  7  8  9  10  11  12  23  26  30  31 0
 6-311+G(2d,p)
 ****
 33  35  36  37  38 0
 6-311+G(2d,p)
 ****
 1  2  13  14  15  16  17  18  19  20  21  22  24  25 0
 3-21G
 ****
 27  28  29  32  34  39  40  41  42  43  44  45  46  47  48  49 0
 3-21G
 ****


