%nproc=1
%NoSave
%Mem=1900MB
#P OB98/GEN NMR

erre ene a

0 1
  C      164.916     -92.270     262.077
  O      164.125     -91.099     262.139
  H      164.487     -92.941     261.327
  H      164.921     -92.778     263.045
  H      165.937     -92.016     261.782
  P      164.568     -89.992     263.212
  C      165.710     -88.531     261.423
  O      164.649     -88.627     262.366
  C      165.163     -88.170     260.040
  O      164.508     -89.339     259.484
  C      164.141     -87.033     260.068
  O      164.325     -86.207     258.919
  C      162.806     -87.750     259.971
  O      161.784     -86.925     259.415
  C      163.167     -88.965     259.119
  N      159.045     -91.368     257.312
  C      159.812     -90.382     256.804
  N      160.907     -89.806     257.346
  C      161.216     -90.390     258.518
  C      160.529     -91.402     259.165
  C      159.384     -91.895     258.513
  N      158.584     -92.883     259.038
  N      161.130     -91.699     260.372
  C      162.172     -90.892     260.445
  N      162.253     -90.069     259.357
  O      165.781     -90.318     264.017
  O      163.220     -89.797     264.051
  H      161.023     -87.496     259.179
  H      162.440     -89.746     263.469
  H      159.502     -89.994     255.835
  H      162.880     -90.853     261.266
  H      163.147     -88.747     258.043
  H      162.480     -88.062     260.971
  H      164.212     -86.427     260.972
  H      166.006     -87.935     259.380
  H      166.252     -89.481     261.366
  H      157.790     -93.189     258.498
  H      158.831     -93.302     259.923
  H      166.400     -87.757     261.771
  P      164.155     -84.622     259.083
  C      166.620     -83.985     258.655
  O      165.276     -83.893     258.191
  O      164.020     -84.120     260.479
  O      162.819     -84.331     258.242
  H      162.305     -83.636     258.697
  H      167.267     -83.464     257.980
  H      166.911     -85.014     258.704
  H      166.692     -83.547     259.628

 6  7  8  9  10  11  12  13  14  15  25  28  32  33  34  35 0
 6-311+G(2d,p)
 ****
 36  39  40 0
 6-311+G(2d,p)
 ****
 1  2  3  4  5  16  17  18  19  20  21  22  23  24 0
 3-21G
 ****
 26  27  29  30  31  37  38  41  42  43  44  45  46  47 0
 3-21G
 ****
 48 0
 3-21G
 ****


