%nproc=1
%NoSave
%Mem=1900MB
#P OB98/GEN NMR

erre ene a

0 1
  C      919.919     476.548     -60.926
  O      920.793     477.661     -60.877
  P      922.017     477.691     -61.914
  C      922.543     480.178     -61.393
  O      923.007     478.836     -61.397
  C      923.544     481.087     -60.685
  O      924.858     480.901     -61.249
  C      923.247     482.570     -60.829
  O      922.200     482.957     -59.958
  C      924.597     483.183     -60.490
  O      924.739     483.364     -59.068
  C      925.595     482.126     -61.010
  N      926.301     482.559     -62.205
  C      927.688     482.717     -62.064
  O      928.230     482.504     -60.980
  N      928.410     483.148     -63.147
  C      927.803     483.404     -64.270
  N      928.571     483.818     -65.314
  C      926.344     483.267     -64.450
  C      925.658     482.851     -63.388
  O      921.365     478.317     -63.234
  O      922.642     476.354     -62.177
  H      924.028     483.989     -58.807
  H      921.840     478.028     -64.033
  H      925.886     483.491     -65.402
  H      924.579     482.730     -63.429
  H      926.341     481.894     -60.242
  H      924.728     484.174     -60.948
  H      922.989     482.812     -61.872
  H      923.583     480.802     -59.630
  H      929.564     483.906     -65.159
  H      921.590     480.233     -60.859
  H      928.196     484.020     -66.235
  H      922.385     480.504     -62.430
  P      921.069     483.918     -60.533
  C      919.493     482.973     -58.742
  O      920.053     484.140     -59.311
  O      920.232     482.928     -61.480
  O      921.514     485.151     -61.252
  H      919.558     483.432     -61.983
  H      918.955     483.254     -57.832
  H      920.280     482.258     -58.484
  H      918.788     482.517     -59.441
  H      919.156     476.661     -60.184
  H      920.472     475.652     -60.736
  H      919.469     476.490     -61.895

 3  4  5  6  7  8  9  10  11  12  13  21  23  27  28  29  30  32 0
 6-311+G(2d,p)
 ****
 34  35 0
 6-311+G(2d,p)
 ****
 1  2  14  15  16  17  18  19  20  22  24  25  26 0
 3-21G
 ****
 31  33  36  37  38  39  40  41  42  43  44  45  46 0
 3-21G
 ****


