%nproc=1
%NoSave
%Mem=1900MB
#P OB98/GEN NMR

erre ene a

0 1
  C      580.182     -70.548    -891.080
  O      579.719     -71.051    -892.330
  P      579.014     -72.485    -892.400
  C      577.292     -71.668    -894.170
  O      578.309     -72.586    -893.840
  C      577.038     -71.656    -895.710
  O      578.175     -70.970    -896.330
  C      576.984     -73.023    -896.340
  O      576.345     -72.893    -897.620
  C      578.452     -73.358    -896.550
  O      578.647     -74.378    -897.530
  C      579.066     -71.965    -896.880
  N      580.412     -71.821    -896.310
  C      581.479     -72.338    -897.060
  O      581.324     -72.820    -898.190
  N      582.707     -72.354    -896.450
  C      582.937     -71.940    -895.160
  O      583.945     -72.242    -894.520
  C      581.853     -71.204    -894.510
  C      580.653     -71.201    -895.100
  O      577.777     -72.332    -891.380
  O      579.879     -73.642    -892.040
  H      578.349     -73.999    -898.400
  H      578.014     -72.686    -890.510
  H      583.424     -72.856    -896.930
  H      582.059     -70.728    -893.560
  H      579.805     -70.701    -894.610
  H      579.119     -71.810    -897.970
  H      578.854     -73.732    -895.590
  H      576.473     -73.786    -895.750
  H      576.140     -71.065    -895.910
  H      577.592     -70.670    -893.820
  H      576.364     -71.921    -893.670
  P      575.374     -74.084    -898.110
  C      573.856     -72.237    -899.040
  O      574.482     -73.479    -899.300
  O      574.627     -74.802    -897.050
  O      576.391     -75.058    -898.910
  H      575.990     -75.932    -899.000
  H      573.734     -71.684    -900.000
  H      574.442     -71.614    -898.360
  H      572.877     -72.405    -898.600
  H      580.622     -69.584    -891.225
  H      580.913     -71.217    -890.675
  H      579.359     -70.466    -890.402

 3  4  5  6  7  8  9  10  11  12  13  23  28  29  30  31  32 0
 6-311+G(2d,p)
 ****
 33  34 0
 6-311+G(2d,p)
 ****
 1  2  14  15  16  17  18  19  20  21  22  24  25  26  27 0
 3-21G
 ****
 35  36  37  38  39  40  41  42  43  44  45 0
 3-21G
 ****


