%nproc=1
%NoSave
%Mem=1900MB
#P OB98/GEN NMR

erre ene a

0 1
  C      233.352     832.584     349.119
  O      233.794     831.518     349.970
  P      232.806     830.246     350.103
  C      235.004     828.841     350.166
  O      233.677     829.024     350.658
  C      235.804     827.940     351.091
  O      236.153     828.622     352.312
  C      235.053     826.683     351.548
  O      235.080     825.672     350.544
  C      235.878     826.272     352.753
  O      237.047     825.516     352.306
  C      236.322     827.631     353.351
  N      235.406     826.805     358.256
  C      236.301     826.197     357.420
  N      237.118     825.252     357.985
  N      236.441     826.494     356.154
  C      235.593     827.468     355.740
  C      234.647     828.148     356.492
  C      234.512     827.800     357.878
  O      233.702     828.282     358.664
  N      233.994     829.086     355.733
  C      234.545     828.997     354.539
  N      235.524     828.015     354.484
  O      232.543     829.836     348.570
  O      231.532     830.542     350.834
  H      237.577     825.312     353.111
  H      231.681     829.393     348.478
  H      235.361     826.545     359.239
  H      234.298     829.602     353.684
  H      237.378     827.610     353.634
  H      235.336     825.626     353.447
  H      237.124     825.033     358.958
  H      234.046     826.931     351.865
  H      237.809     824.831     357.377
  H      236.729     827.655     350.569
  H      235.498     829.802     350.074
  H      234.934     828.425     349.150
  P      233.677     825.331     349.815
  C      235.270     824.551     347.903
  O      234.067     824.348     348.617
  O      233.327     826.706     349.080
  O      232.600     824.890     350.726
  H      232.369     826.799     348.976
  H      236.094     824.791     348.601
  H      235.136     825.378     347.203
  H      235.526     823.640     347.356
  H      234.086     833.363     349.113
  H      232.424     832.971     349.485
  H      233.216     832.214     348.124

 3  4  5  6  7  8  9  10  11  12  23  26  30  31  33  0
 6-311+G(2d,p)
 ****
 35  36  37  38 0
 6-311+G(2d,p)
 ****
 1  2  13  14  15  16  17  18  19  20  21  22  24  25  27  28  29 0
 3-21G
 ****
 32  34  39  40  41  42  43  44  45  46  47  48  49 0
 3-21G
 ****


