%nproc=1
%NoSave
%Mem=1900MB
#P OB98/GEN NMR

erre ene a

0 1
  C       10.163       0.906       4.306
  O       11.450       0.333       4.292
  P       12.797       1.181       4.209
  C       12.929       1.089       1.601
  O       12.867       1.890       2.774
  C       13.375       1.920       0.389
  O       12.319       2.858       0.061
  C       14.629       2.751       0.705
  O       15.588       2.778      -0.344
  C       14.048       4.085       1.154
  O       14.970       5.162       1.076
  C       12.812       4.198       0.268
  N       11.408       8.790       1.927
  C       12.541       8.428       1.225
  N       13.497       9.375       1.114
  N       12.725       7.238       0.717
  C       11.733       6.365       1.006
  C       10.565       6.609       1.690
  C       10.358       7.936       2.218
  O        9.422       8.270       2.943
  N        9.823       5.469       1.852
  C       10.556       4.526       1.297
  N       11.742       5.017       0.799
  O       14.034       0.525       4.731
  O       12.458       2.426       5.181
  H       14.505       5.968       1.366
  H       13.292       2.682       5.622
  H       11.359       9.702       2.365
  H       10.296       3.475       1.253
  H       13.057       4.619      -0.709
  H       13.766       3.984       2.207
  H       13.446      10.247       1.620
  H       15.182       2.307       1.540
  H       14.423       9.064       0.831
  H       13.515       1.258      -0.471
  H       11.918       0.700       1.439
  H       13.596       0.237       1.751
  P       17.173       2.925      -0.248
  C       17.264       5.408      -0.881
  O       17.525       4.443       0.119
  O       17.694       2.795      -1.754
  O       17.842       1.909       0.619
  H       18.522       2.278      -1.770
  H       17.790       6.331      -0.624
  H       16.191       5.611      -0.924
  H       17.613       5.060      -1.858
  H        9.428       0.131       4.366
  H       10.014       1.470       3.409
  H       10.070       1.552       5.154

 3  4  5  6  7  8  9  10  11  12  23  26  30  31 0
 6-311+G(2d,p)
 ****
 33  35  36  37  38 0
 6-311+G(2d,p)
 ****
 1  2  13  14  15  16  17  18  19  20  21  22  24  25 0
 3-21G
 ****
 27  28  29  32  34  39  40  41  42  43  44  45  46  47  48  49 0
 3-21G
 ****


