%nproc=1
%NoSave
%Mem=1900MB
#P OB98/GEN NMR

erre ene a

0 1
  C     -267.709    -458.524     553.151
  O     -268.556    -459.396     552.430
  H     -267.638    -457.576     552.612
  H     -266.709    -458.957     553.231
  H     -268.108    -458.327     554.151
  P     -269.046    -460.753     553.128
  C     -271.365    -461.018     552.026
  O     -270.025    -461.482     552.081
  C     -271.469    -459.764     551.154
  O     -270.864    -460.048     549.854
  C     -272.913    -459.296     550.895
  O     -272.889    -457.866     550.774
  C     -273.194    -459.951     549.552
  O     -274.343    -459.421     548.943
  C     -271.852    -459.711     548.860
  N     -271.676    -460.499     547.644
  C     -272.029    -459.901     546.439
  O     -272.448    -458.749     546.339
  N     -271.883    -460.685     545.324
  C     -271.438    -461.975     545.301
  O     -271.308    -462.625     544.271
  C     -271.113    -462.560     546.611
  C     -271.246    -461.807     547.703
  O     -269.595    -460.611     554.509
  O     -267.742    -461.683     553.104
  H     -267.292    -461.639     553.969
  H     -275.083    -459.376     549.588
  H     -272.128    -460.267     544.437
  H     -270.782    -463.590     546.630
  H     -271.016    -462.208     548.688
  H     -271.725    -458.651     548.623
  H     -273.379    -461.019     549.687
  H     -273.606    -459.583     551.690
  H     -270.870    -458.963     551.611
  H     -271.691    -460.788     553.045
  H     -272.003    -461.809     551.614
  P     -273.623    -456.884     551.808
  C     -272.226    -454.729     552.077
  O     -273.311    -455.359     551.407
  O     -273.326    -457.187     553.243
  O     -275.188    -457.040     551.514
  H     -275.684    -456.967     552.353
  H     -272.123    -453.724     551.723
  H     -271.324    -455.270     551.882
  H     -272.415    -454.719     553.130

 6  7  8  9  10  11  12  13  14  15  16  27  31  32  33  34  35 0
 6-311+G(2d,p)
 ****
 36  37 0
 6-311+G(2d,p)
 ****
 1  2  3  4  5  17  18  19  20  21  22  23  24  25 0
 3-21G
 ****
 26  28  29  30  38  39  40  41  42  43  44  45 0
 3-21G
 ****


