%nproc=1
%NoSave
%Mem=1900MB
#P OB98/GEN NMR

erre ene a

0 1
  C       32.126    -544.691     339.472
  O       33.115    -545.046     340.419
  H       31.142    -544.858     339.917
  H       32.221    -545.306     338.575
  H       32.220    -543.630     339.214
  P       34.642    -544.903     339.952
  C       35.337    -546.380     341.966
  O       35.368    -546.204     340.555
  C       35.537    -547.853     342.323
  O       34.336    -548.597     342.068
  C       36.643    -548.537     341.536
  O       37.908    -548.283     342.124
  C       36.246    -549.995     341.696
  O       36.690    -550.484     342.978
  C       34.709    -549.937     341.664
  N       34.409    -553.248     337.746
  C       35.256    -553.177     338.798
  N       35.315    -552.240     339.771
  C       34.359    -551.308     339.583
  C       33.433    -551.245     338.563
  C       33.475    -552.277     337.611
  N       32.619    -552.343     336.538
  N       32.625    -550.137     338.695
  C       33.014    -549.573     339.824
  N       34.093    -550.226     340.376
  O       35.290    -543.592     340.244
  O       34.524    -545.268     338.396
  H       37.614    -550.178     343.090
  H       33.903    -546.006     338.268
  H       35.987    -553.977     338.871
  H       32.547    -548.716     340.287
  H       34.260    -550.628     342.386
  H       36.692    -550.644     340.939
  H       36.617    -548.271     340.473
  H       35.737    -547.905     343.409
  H       34.378    -546.026     342.362
  H       32.839    -553.002     335.804
  H       32.010    -551.554     336.369
  H       36.133    -545.765     342.394
  P       39.236    -548.995     341.579
  C       40.664    -547.745     343.311
  O       40.246    -549.014     342.829
  O       39.778    -548.419     340.313
  O       38.826    -550.529     341.430
  H       39.466    -551.002     340.860
  H       41.330    -547.879     344.138
  H       39.809    -547.185     343.628
  H       41.168    -547.215     342.530

 6  7  8  9  10  11  12  13  14  15  25  28  32  33  34  35 0
 6-311+G(2d,p)
 ****
 36  39  40 0
 6-311+G(2d,p)
 ****
 1  2  3  4  5  16  17  18  19  20  21  22  23  24 0
 3-21G
 ****
 26  27  29  30  31  37  38  41  42  43  44  45  46  47 0
 3-21G
 ****
 48 0
 3-21G
 ****


