%nproc=1
%NoSave
%Mem=1900MB
#P OB98/GEN NMR

erre ene a

0 1
  C       34.668     123.736     -51.640
  O       34.337     125.025     -51.160
  H       35.132     123.145     -50.845
  H       33.750     123.236     -51.961
  H       35.347     123.813     -52.496
  P       35.559     125.941     -50.664
  C       34.869     125.254     -48.257
  O       35.926     125.431     -49.187
  C       35.286     125.762     -46.881
  O       36.312     124.908     -46.326
  C       35.872     127.169     -46.871
  O       34.862     128.164     -46.913
  C       36.595     127.164     -45.529
  O       35.648     127.379     -44.466
  C       37.143     125.731     -45.465
  N       42.034     125.782     -43.958
  C       40.874     125.840     -43.264
  N       39.611     125.802     -43.736
  C       39.608     125.669     -45.073
  C       40.705     125.569     -45.913
  C       41.970     125.640     -45.306
  N       43.152     125.644     -46.036
  N       40.304     125.460     -47.231
  C       38.989     125.508     -47.185
  N       38.521     125.625     -45.903
  O       34.860     127.362     -50.415
  O       36.703     126.047     -51.618
  H       35.026     126.630     -44.489
  H       34.997     127.928     -51.198
  H       40.976     125.937     -42.186
  H       38.338     125.465     -48.048
  H       37.079     125.306     -44.455
  H       37.355     127.949     -45.449
  H       36.608     127.305     -47.672
  H       34.412     125.699     -46.218
  H       34.617     124.189     -48.190
  H       43.905     126.151     -45.577
  H       43.030     125.805     -47.029
  H       33.992     125.807     -48.614
  P       35.112     129.446     -47.846
  C       35.518     130.912     -45.752
  O       36.031     130.454     -46.998
  O       33.679     130.157     -47.863
  O       35.585     129.146     -49.229
  H       33.377     130.267     -48.786
  H       36.226     131.572     -45.296
  H       35.344     130.075     -45.109
  H       34.598     131.434     -45.915

 6  7  8  9  10  11  12  13  14  15  25  28  32  33  34  35 0
 6-311+G(2d,p)
 ****
 36  39  40 0
 6-311+G(2d,p)
 ****
 1  2  3  4  5  16  17  18  19  20  21  22  23  24 0
 3-21G
 ****
 26  27  29  30  31  37  38  41  42  43  44  45  46  47  48 0
 3-21G
 ****


