%nproc=1
%NoSave
%Mem=1900MB
#P OB98/GEN NMR

erre ene a

0 1
  C       69.040    -454.218     149.882
  O       69.792    -453.040     150.152
  P       71.392    -453.182     150.238
  C       71.468    -451.254     151.976
  O       71.793    -452.610     151.681
  C       70.954    -451.122     153.403
  O       69.782    -451.943     153.575
  C       71.931    -451.576     154.470
  O       72.901    -450.588     154.761
  C       70.993    -451.797     155.653
  O       70.730    -450.537     156.294
  C       69.727    -452.332     154.968
  N       68.792    -456.281     157.997
  C       68.835    -454.937     158.290
  N       68.570    -454.584     159.568
  N       69.121    -454.009     157.412
  C       69.332    -454.498     156.168
  C       69.315    -455.812     155.758
  C       69.046    -456.831     156.748
  O       69.057    -458.047     156.562
  N       69.558    -455.917     154.408
  C       69.677    -454.668     153.999
  N       69.583    -453.770     155.039
  O       71.906    -452.049     149.234
  O       71.925    -454.529     149.886
  H       70.626    -449.872     155.591
  H       72.795    -452.286     148.898
  H       68.548    -456.949     158.710
  H       69.842    -454.367     152.978
  H       68.824    -451.867     155.393
  H       71.415    -452.465     156.411
  H       68.213    -455.238     160.254
  H       72.401    -452.532     154.194
  H       68.555    -453.599     159.799
  H       70.665    -450.078     153.563
  H       70.686    -450.916     151.279
  H       72.358    -450.632     151.823
  P       74.444    -451.006     154.571
  C       74.786    -450.844     157.146
  O       74.883    -451.641     155.974
  O       75.204    -449.598     154.525
  O       74.704    -451.840     153.359
  H       76.036    -449.683     154.023
  H       73.906    -450.187     157.109
  H       75.689    -450.238     157.242
  H       74.698    -451.496     158.008
  H       67.998    -453.977     149.853
  H       69.218    -454.939     150.652
  H       69.339    -454.623     148.938

 3  4  5  6  7  8  9  10  11  12  23  26  30  31  33  0
 6-311+G(2d,p)
 ****
 35  36  37  38 0
 6-311+G(2d,p)
 ****
 1  2  13  14  15  16  17  18  19  20  21  22  24  25  27  28  29 0
 3-21G
 ****
 32  34  39  40  41  42  43  44  45  46  47  48  49 0
 3-21G
 ****


