%nproc=1
%NoSave
%Mem=1900MB
#P OB98/GEN NMR

erre ene a

0 1
  C      150.707     -22.992     -72.077
  O      150.027     -23.354     -73.261
  H      150.001     -22.599     -71.340
  H      151.189     -23.881     -71.660
  H      151.473     -22.242     -72.295
  P      149.217     -22.191     -74.014
  C      146.953     -22.962     -72.987
  O      147.919     -21.927     -73.104
  C      145.566     -22.344     -72.856
  O      145.461     -21.618     -71.611
  C      145.237     -21.337     -73.952
  O      144.788     -21.957     -75.145
  C      144.121     -20.550     -73.287
  O      142.899     -21.309     -73.326
  C      144.637     -20.443     -71.843
  N      144.501     -15.543     -70.365
  C      143.538     -16.487     -70.449
  N      143.660     -17.775     -70.831
  C      144.934     -18.061     -71.138
  C      146.024     -17.206     -71.094
  C      145.770     -15.885     -70.689
  N      146.743     -14.912     -70.632
  N      147.171     -17.859     -71.503
  C      146.780     -19.089     -71.770
  N      145.432     -19.251     -71.596
  O      148.609     -22.921     -75.302
  O      149.997     -20.964     -74.349
  H      142.218     -20.775     -72.876
  H      148.287     -22.262     -75.946
  H      142.538     -16.164     -70.176
  H      147.429     -19.890     -72.101
  H      143.827     -20.451     -71.105
  H      143.923     -19.596     -73.783
  H      146.081     -20.665     -74.147
  H      144.828     -23.156     -72.832
  H      147.177     -23.559     -72.095
  H      146.437     -13.964     -70.475
  H      147.655     -15.116     -71.010
  H      146.999     -23.605     -73.871
  P      145.547     -21.577     -76.509
  C      143.568     -20.505     -77.806
  O      144.789     -20.295     -77.107
  O      145.115     -22.755     -77.499
  O      147.030     -21.457     -76.383
  H      145.827     -22.952     -78.138
  H      143.184     -19.565     -78.143
  H      142.858     -20.967     -77.153
  H      143.744     -21.141     -78.648

 6  7  8  9  10  11  12  13  14  15  25  28  32  33  34  35 0
 6-311+G(2d,p)
 ****
 36  39  40 0
 6-311+G(2d,p)
 ****
 1  2  3  4  5  16  17  18  19  20  21  22  23  24 0
 3-21G
 ****
 26  27  29  30  31  37  38  41  42  43  44  45  46  47 0
 3-21G
 ****
 48 0
 3-21G
 ****


