%nproc=1
%NoSave
%Mem=1900MB
#P OB98/GEN NMR

erre ene a

0 1
  C      747.529    -283.334     339.443
  O      746.121    -283.278     339.683
  P      745.418    -284.452     340.528
  C      743.281    -282.968     340.801
  O      743.830    -284.238     340.491
  C      741.871    -282.838     340.220
  O      741.906    -282.981     338.780
  C      740.891    -283.901     340.694
  O      740.424    -283.640     342.014
  C      739.803    -283.809     339.641
  O      738.890    -282.742     339.931
  C      740.625    -283.499     338.372
  N      740.766    -284.657     337.493
  C      739.719    -284.904     336.612
  O      738.683    -284.234     336.589
  N      739.887    -285.973     335.769
  C      740.937    -286.847     335.777
  O      741.018    -287.802     335.014
  C      741.975    -286.583     336.781
  C      741.839    -285.527     337.589
  O      745.772    -284.034     342.032
  O      745.902    -285.837     340.236
  H      738.259    -282.700     339.179
  H      745.811    -284.833     342.599
  H      739.150    -286.153     335.105
  H      742.817    -287.260     336.845
  H      742.600    -285.311     338.341
  H      740.139    -282.690     337.800
  H      739.206    -284.724     339.569
  H      741.360    -284.894     340.644
  H      741.494    -281.827     340.454
  H      743.916    -282.184     340.376
  H      743.256    -282.847     341.895
  P      740.614    -284.820     343.092
  C      740.203    -283.040     344.971
  O      739.868    -284.293     344.413
  O      742.172    -284.694     343.413
  O      740.193    -286.161     342.580
  H      742.486    -283.768     343.371
  H      740.473    -282.317     344.202
  H      741.032    -283.172     345.674
  H      739.327    -282.663     345.521
  H      747.827    -282.481     338.870
  H      747.763    -284.227     338.902
  H      748.050    -283.336     340.377

 3  4  5  6  7  8  9  10  11  12  13  23  28  29  30  31  32 0
 6-311+G(2d,p)
 ****
 33  34 0
 6-311+G(2d,p)
 ****
 1  2  14  15  16  17  18  19  20  21  22  24  25  26 0
 3-21G
 ****
 27  35  36  37  38  39  40  41  42  43  44  45 0
 3-21G
 ****


