%nproc=1
%NoSave
%Mem=1900MB
#P OB98/GEN NMR

erre ene a

0 1
  C      460.901     304.371     169.945
  O      460.479     305.155     171.049
  H      460.252     304.572     169.087
  H      461.921     304.652     169.687
  H      460.876     303.310     170.192
  P      459.127     304.717     171.792
  C      460.223     304.621     174.147
  O      459.248     305.237     173.310
  C      460.830     305.642     175.100
  O      461.939     306.312     174.425
  C      459.853     306.734     175.574
  O      460.119     307.025     176.951
  C      460.234     307.944     174.731
  O      459.889     309.175     175.350
  C      461.741     307.729     174.577
  N      462.632     312.417     172.783
  C      462.390     311.955     174.028
  N      462.222     310.676     174.425
  C      462.384     309.829     173.394
  C      462.630     310.155     172.071
  C      462.749     311.515     171.765
  N      462.930     311.996     170.491
  N      462.684     308.999     171.304
  C      462.435     308.005     172.138
  N      462.245     308.458     173.420
  O      459.313     303.123     171.925
  O      457.859     305.073     171.093
  H      458.916     309.211     175.445
  H      458.975     302.684     171.122
  H      462.321     312.709     174.807
  H      462.346     306.968     171.876
  H      462.303     308.074     175.453
  H      459.731     307.891     173.757
  H      458.795     306.463     175.454
  H      461.264     305.111     175.962
  H      461.015     304.199     173.515
  H      462.890     312.995     170.363
  H      462.909     311.345     169.718
  H      459.752     303.809     174.711
  P      458.935     307.678     177.819
  C      458.961     306.043     179.848
  O      459.208     307.363     179.368
  O      457.672     306.757     177.471
  O      458.674     309.116     177.497
  H      456.854     307.282     177.487
  H      459.190     305.995     180.892
  H      459.577     305.349     179.316
  H      457.931     305.795     179.696

 6  7  8  9  10  11  12  13  14  15  25  28  32  33  34  35 0
 6-311+G(2d,p)
 ****
 36  39  40 0
 6-311+G(2d,p)
 ****
 1  2  3  4  5  16  17  18  19  20  21  22  23  24 0
 3-21G
 ****
 26  27  29  30  31  37  38  41  42  43  44  45  46  47 0
 3-21G
 ****
 48 0
 3-21G
 ****


