%nproc=1
%NoSave
%Mem=1900MB
#P OB98/GEN NMR

erre ene a

0 1
  C        0.345     115.056      39.539
  O        1.186     116.152      39.216
  P        1.337     116.662      37.701
  C        2.198     115.558      35.544
  O        2.202     115.528      36.967
  C        3.131     114.482      34.995
  O        4.476     114.772      35.443
  C        2.851     113.054      35.462
  O        1.855     112.373      34.714
  C        4.205     112.403      35.205
  O        4.342     112.099      33.804
  C        5.180     113.515      35.603
  N        8.654     111.348      38.673
  C        8.478     111.305      37.332
  N        7.516     111.895      36.590
  C        6.702     112.625      37.370
  C        6.758     112.770      38.746
  C        7.793     112.088      39.408
  N        7.983     112.152      40.772
  N        5.736     113.586      39.194
  C        5.088     113.935      38.102
  N        5.638     113.389      36.975
  O        1.842     118.055      37.565
  O       -0.120     116.465      37.073
  H        3.620     111.482      33.577
  H       -0.200     116.984      36.249
  H        9.205     110.714      36.780
  H        4.218     114.576      38.080
  H        6.063     113.552      34.956
  H        4.335     111.463      35.748
  H        2.634     113.020      36.536
  H        3.120     114.543      33.899
  H        2.553     116.542      35.220
  H        8.825     111.740      41.142
  H        7.446     112.829      41.296
  H        1.178     115.422      35.177
  P        1.213     111.054      35.377
  C        2.253     108.817      36.253
  O        2.424     110.012      35.523
  O        0.001     110.538      34.685
  O        0.942     111.516      36.887
  H        1.737     111.689      37.417
  H        3.128     108.181      36.094
  H        1.365     108.277      35.914
  H        2.167     109.038      37.320
  H        0.383     114.876      40.593
  H        0.679     114.184      39.016
  H       -0.661     115.281      39.252

 3  4  5  6  7  8  9  10  11  12  22  25  29  30  31  32 0
 6-311+G(2d,p)
 ****
 33  36  37 0
 6-311+G(2d,p)
 ****
 1  2  13  14  15  16  17  18  19  20  21  23  24  26 0
 3-21G
 ****
 27  28  34  35  38  39  40  41  42  43  44  45  46  47  48 0
 3-21G
 ****


