%nproc=1
%NoSave
%Mem=1900MB
#P OB98/GEN NMR

erre ene a

0 1
  C      108.905    -236.534     135.733
  O      110.255    -236.341     136.178
  P      111.352    -237.407     135.695
  C      111.585    -236.207     133.379
  O      111.288    -237.395     134.093
  C      112.844    -236.401     132.535
  O      112.640    -237.444     131.550
  C      113.260    -235.171     131.738
  O      113.851    -234.189     132.579
  C      114.200    -235.797     130.715
  O      115.492    -236.008     131.294
  C      113.514    -237.149     130.438
  N      112.795    -237.176     129.170
  C      113.587    -237.128     128.016
  O      114.810    -237.042     128.052
  N      112.910    -237.155     126.832
  C      111.551    -237.199     126.679
  O      111.003    -237.241     125.582
  C      110.772    -237.194     127.923
  C      111.415    -237.186     129.093
  O      110.647    -238.782     136.114
  O      112.695    -237.175     136.298
  H      109.683    -238.760     136.011
  H      115.389    -236.726     131.959
  H      113.464    -237.133     125.986
  H      109.695    -237.203     127.843
  H      110.860    -237.177     130.023
  H      114.263    -237.952     130.418
  H      114.338    -235.161     129.837
  H      112.382    -234.741     131.231
  H      113.657    -236.714     133.203
  H      111.750    -235.382     134.081
  H      110.723    -235.939     132.758
  P      113.191    -232.725     132.554
  C      111.810    -233.089     134.746
  O      111.811    -232.835     133.358
  O      112.736    -232.613     131.024
  O      114.116    -231.639     133.006
  H      112.313    -233.418     130.691
  H      110.849    -232.786     135.155
  H      112.605    -232.534     135.251
  H      111.949    -234.161     134.921
  H      108.285    -235.756     136.127
  H      108.549    -237.483     136.076
  H      108.875    -236.507     134.664

 3  4  5  6  7  8  9  10  11  12  13  24  28  29  30  31  32 0
 6-311+G(2d,p)
 ****
 33  34 0
 6-311+G(2d,p)
 ****
 1  2  14  15  16  17  18  19  20  21  22  23  25  26  27 0
 3-21G
 ****
 35  36  37  38  39  40  41  42  43  44  45 0
 3-21G
 ****


