%nproc=1
%NoSave
%Mem=1900MB
#P OB98/GEN NMR

erre ene a

0 1
  C      -59.760     -90.974     224.067
  O      -58.831     -91.497     225.027
  P      -59.055     -92.877     225.815
  C      -56.627     -93.773     225.884
  O      -57.709     -93.215     226.622
  C      -55.289     -93.447     226.551
  O      -55.169     -92.021     226.770
  C      -55.087     -94.052     227.933
  O      -54.836     -95.445     227.882
  C      -53.917     -93.221     228.454
  O      -52.660     -93.747     228.004
  C      -54.175     -91.848     227.806
  N      -54.587     -90.835     228.762
  C      -53.689     -90.538     229.790
  O      -52.642     -91.175     229.905
  N      -54.007     -89.535     230.671
  C      -55.166     -88.957     230.599
  N      -55.420     -87.958     231.488
  C      -56.198     -89.336     229.615
  C      -55.844     -90.270     228.734
  O      -59.533     -93.997     224.950
  O      -60.118     -92.541     226.963
  H      -60.608     -93.350     227.202
  H      -51.961     -93.241     228.463
  H      -57.165     -88.857     229.616
  H      -56.537     -90.598     227.966
  H      -53.274     -91.502     227.283
  H      -53.883     -93.197     229.548
  H      -55.975     -93.855     228.547
  H      -54.484     -93.765     225.875
  H      -54.687     -87.715     232.142
  H      -56.635     -93.340     224.877
  H      -56.279     -87.427     231.501
  H      -56.769     -94.854     225.798
  P      -55.139     -96.286     229.215
  C      -57.733     -96.359     229.221
  O      -56.523     -97.059     228.998
  O      -55.491     -95.161     230.299
  O      -54.004     -97.145     229.675
  H      -55.112     -95.408     231.162
  H      -58.514     -96.804     228.601
  H      -57.638     -95.300     228.968
  H      -58.017     -96.460     230.272
  H      -59.390     -90.047     223.681
  H      -60.707     -90.811     224.539
  H      -59.876     -91.673     223.265

 3  4  5  6  7  8  9  10  11  12  13  24  27  28  29  30  32 0
 6-311+G(2d,p)
 ****
 34  35 0
 6-311+G(2d,p)
 ****
 1  2  14  15  16  17  18  19  20  21  22  23  25  26 0
 3-21G
 ****
 31  33  36  37  38  39  40  41  42  43  44  45  46 0
 3-21G
 ****


