%nproc=1
%NoSave
%Mem=1900MB
#P OB98/GEN NMR

erre ene a

0 1
  C       19.276     248.642    -217.835
  O       19.064     248.821    -219.226
  P       17.574     248.540    -219.777
  C       17.949     246.793    -221.652
  O       17.686     248.138    -221.342
  C       18.736     246.653    -222.970
  O       18.098     247.413    -224.029
  C       20.183     247.145    -222.865
  O       20.978     246.330    -223.725
  C       20.114     248.551    -223.441
  O       21.392     249.024    -223.855
  C       19.093     248.322    -224.559
  N       19.984     253.050    -226.299
  C       20.828     252.034    -225.936
  N       20.500     250.815    -225.466
  C       19.157     250.675    -225.413
  C       18.196     251.601    -225.745
  C       18.644     252.852    -226.191
  N       17.801     253.886    -226.524
  N       16.926     251.101    -225.494
  C       17.139     249.864    -225.055
  N       18.461     249.563    -225.007
  O       16.909     249.997    -219.800
  O       16.789     247.591    -218.936
  H       21.262     249.840    -224.381
  H       16.250     250.069    -219.095
  H       21.884     252.242    -226.039
  H       16.354     249.181    -224.725
  H       19.543     247.859    -225.457
  H       19.709     249.233    -222.686
  H       20.598     247.150    -221.851
  H       18.725     245.587    -223.282
  H       16.992     246.234    -221.761
  H       18.229     254.764    -226.805
  H       16.813     253.768    -226.402
  H       18.472     246.318    -220.830
  P       21.946     245.246    -223.025
  C       24.038     245.474    -224.568
  O       22.910     244.694    -224.166
  O       20.959     244.033    -222.708
  O       22.625     245.775    -221.812
  H       21.300     243.510    -221.953
  H       24.887     244.803    -224.720
  H       24.302     246.221    -223.813
  H       23.794     245.977    -225.503
  H       20.297     248.858    -217.599
  H       19.055     247.630    -217.568
  H       18.636     249.303    -217.289

 3  4  5  6  7  8  9  10  11  12  22  25  29  30  31  32 0
 6-311+G(2d,p)
 ****
 33  36  37 0
 6-311+G(2d,p)
 ****
 1  2  13  14  15  16  17  18  19  20  21  23  24  26 0
 3-21G
 ****
 27  28  34  35  38  39  40  41  42  43  44  45  46  47  48 0
 3-21G
 ****


