%nproc=1
%NoSave
%Mem=1900MB
#P OB98/GEN NMR

erre ene a

0 1
  C        1.459    -155.512     -87.665
  O        0.544    -154.502     -88.040
  P       -0.269    -154.601     -89.414
  C        1.820    -153.879     -90.707
  O        0.442    -153.622     -90.469
  C        2.361    -153.007     -91.840
  O        3.806    -153.151     -91.901
  C        1.809    -153.348     -93.232
  O        1.724    -152.116     -93.955
  C        2.907    -154.213     -93.826
  O        2.860    -154.270     -95.247
  C        4.138    -153.517     -93.259
  N        8.477    -154.653     -95.711
  C        7.488    -153.779     -95.994
  N        6.351    -153.553     -95.304
  C        6.289    -154.340     -94.217
  C        7.207    -155.299     -93.816
  C        8.360    -155.433     -94.609
  N        9.396    -156.293     -94.317
  N        6.762    -155.943     -92.677
  C        5.602    -155.383     -92.400
  N        5.308    -154.367     -93.266
  O       -1.746    -154.422     -89.295
  O        0.092    -156.057     -89.972
  H        3.552    -154.886     -95.553
  H       -0.673    -156.655     -89.857
  H        7.629    -153.179     -96.888
  H        4.941    -155.671     -91.595
  H        4.382    -152.599     -93.806
  H        2.816    -155.237     -93.443
  H        0.838    -153.853     -93.214
  H        2.152    -151.959     -91.593
  H        1.924    -154.933     -90.983
  H       10.230    -156.213     -94.876
  H        9.459    -156.685     -93.379
  H        2.394    -153.704     -89.790
  P        0.437    -151.806     -94.860
  C        1.619    -152.729     -96.934
  O        0.969    -151.611     -96.357
  O       -0.457    -150.724     -94.350
  O       -0.321    -153.218     -94.926
  H       -1.245    -153.079     -95.212
  H        2.652    -152.772     -96.580
  H        1.619    -152.618     -98.022
  H        1.108    -153.660     -96.672
  H        1.897    -155.264     -86.721
  H        2.228    -155.590     -88.405
  H        0.945    -156.447     -87.585

 3  4  5  6  7  8  9  10  11  12  22  25  29  30  31  32 0
 6-311+G(2d,p)
 ****
 33  36  37 0
 6-311+G(2d,p)
 ****
 1  2  13  14  15  16  17  18  19  20  21  23  24  26 0
 3-21G
 ****
 27  28  34  35  38  39  40  41  42  43  44  45  46  47  48 0
 3-21G
 ****


