%nproc=1
%NoSave
%Mem=1900MB
#P OB98/GEN NMR

erre ene a

0 1
  C     -147.932     274.008    -344.979
  O     -147.466     273.590    -343.710
  H     -147.109     273.932    -345.694
  H     -148.276     275.047    -344.947
  H     -148.746     273.359    -345.311
  P     -148.409     273.852    -342.435
  C     -147.610     272.042    -340.771
  O     -147.532     273.413    -341.159
  C     -146.233     271.522    -340.339
  O     -145.329     271.510    -341.464
  C     -145.553     272.385    -339.287
  O     -146.173     272.343    -338.016
  C     -144.095     271.981    -339.425
  O     -143.748     270.830    -338.660
  C     -143.994     271.655    -340.940
  N     -143.228     272.660    -341.666
  C     -142.007     272.233    -342.186
  O     -141.565     271.092    -342.042
  N     -141.283     273.179    -342.857
  C     -141.628     274.494    -343.007
  O     -140.910     275.307    -343.586
  C     -142.912     274.891    -342.417
  C     -143.647     273.969    -341.778
  O     -149.766     273.209    -342.486
  O     -148.458     275.445    -342.317
  H     -143.690     271.111    -337.725
  H     -149.206     275.737    -341.744
  H     -140.403     272.892    -343.253
  H     -143.219     275.926    -342.507
  H     -144.600     274.238    -341.332
  H     -143.493     270.686    -341.084
  H     -143.422     272.784    -339.111
  H     -145.617     273.430    -339.620
  H     -146.351     270.489    -339.988
  H     -147.949     271.470    -341.639
  H     -148.333     271.925    -339.959
  P     -146.477     273.650    -337.143
  C     -149.071     273.651    -337.087
  O     -147.867     273.425    -336.369
  O     -146.222     274.970    -337.800
  O     -145.396     273.492    -335.954
  H     -145.098     274.388    -335.701
  H     -149.908     273.463    -336.448
  H     -149.112     272.994    -337.931
  H     -149.100     274.666    -337.424

 6  7  8  9  10  11  12  13  14  15  16  26  31  32  33  34  35 0
 6-311+G(2d,p)
 ****
 36  37 0
 6-311+G(2d,p)
 ****
 1  2  3  4  5  17  18  19  20  21  22  23  24  25 0
 3-21G
 ****
 27  28  29  30  38  39  40  41  42  43  44  45 0
 3-21G
 ****


