%nproc=1
%NoSave
%Mem=1900MB
#P OB98/GEN NMR

erre ene a

0 1
  C      -26.267     -48.893       8.371
  O      -27.437     -49.429       8.960
  P      -27.368     -50.097      10.413
  C      -27.181     -52.542       9.539
  O      -26.580     -51.484      10.254
  C      -26.962     -53.885      10.248
  O      -25.536     -54.062      10.432
  C      -27.577     -53.982      11.641
  O      -27.670     -55.362      12.001
  C      -26.527     -53.304      12.492
  O      -26.639     -53.655      13.868
  C      -25.207     -53.734      11.802
  N      -24.199     -52.659      11.843
  C      -23.512     -52.486      13.042
  O      -23.659     -53.230      14.011
  N      -22.712     -51.379      13.118
  C      -22.583     -50.431      12.145
  O      -22.122     -49.313      12.338
  C      -23.138     -50.791      10.831
  C      -23.933     -51.861      10.747
  O      -28.883     -50.546      10.669
  O      -26.864     -49.204      11.494
  H      -25.945     -53.147      14.349
  H      -29.348     -49.872      11.199
  H      -22.328     -51.176      14.033
  H      -22.931     -50.139       9.994
  H      -24.399     -52.121       9.801
  H      -24.775     -54.620      12.283
  H      -26.652     -52.217      12.417
  H      -28.554     -53.499      11.735
  H      -27.324     -54.697       9.608
  H      -26.772     -52.569       8.525
  H      -28.258     -52.366       9.434
  P      -29.084     -55.907      12.525
  C      -28.804     -54.727      14.789
  O      -29.593     -54.855      13.623
  O      -29.119     -57.339      12.941
  O      -30.062     -55.623      11.285
  H      -30.863     -56.171      11.367
  H      -28.910     -53.711      15.177
  H      -27.748     -54.919      14.581
  H      -29.159     -55.435      15.543
  H      -26.504     -48.492       7.408
  H      -25.535     -49.666       8.266
  H      -25.878     -48.115       8.995

 3  4  5  6  7  8  9  10  11  12  13  23  28  29  30  31  32 0
 6-311+G(2d,p)
 ****
 33  34 0
 6-311+G(2d,p)
 ****
 1  2  14  15  16  17  18  19  20  21  22  24  25  26  27 0
 3-21G
 ****
 35  36  37  38  39  40  41  42  43  44  45 0
 3-21G
 ****


