%nproc=1
%NoSave
%Mem=1900MB
#P OB98/GEN NMR

erre ene a

0 1
  C      251.504     -10.342     402.568
  O      252.501      -9.458     402.096
  H      251.209     -10.028     403.574
  H      251.898     -11.360     402.624
  H      250.624     -10.319     401.921
  P      253.004      -9.600     400.582
  C      255.367      -9.559     401.622
  O      254.534      -9.124     400.550
  C      256.835      -9.362     401.248
  O      257.256     -10.389     400.321
  C      257.122      -8.037     400.556
  O      257.141      -6.969     401.481
  C      258.461      -8.339     399.903
  O      259.534      -8.207     400.849
  C      258.278      -9.813     399.476
  N      257.936      -9.957     398.062
  C      258.985      -9.829     397.154
  O      260.142      -9.579     397.491
  N      258.653      -9.974     395.834
  C      257.386     -10.116     395.339
  O      257.133     -10.149     394.138
  C      256.317     -10.215     396.340
  C      256.635     -10.134     397.634
  O      252.128      -8.976     399.547
  O      253.120     -11.184     400.371
  H      260.359      -8.209     400.329
  H      252.370     -11.496     399.829
  H      259.395      -9.874     395.161
  H      255.304     -10.342     395.985
  H      255.858     -10.201     398.386
  H      259.196     -10.380     399.665
  H      258.679      -7.665     399.075
  H      256.378      -7.854     399.768
  H      257.437      -9.466     402.158
  H      255.175     -10.621     401.805
  H      255.115      -8.990     402.522
  P      255.898      -5.963     401.562
  C      257.531      -3.992     401.294
  O      256.454      -4.539     402.051
  O      254.713      -6.469     402.309
  O      255.527      -5.696     400.028
  H      254.611      -5.988     399.863
  H      257.816      -3.048     401.710
  H      257.221      -3.856     400.279
  H      258.365      -4.662     401.325

 6  7  8  9  10  11  12  13  14  15  16  26  31  32  33  34  35 0
 6-311+G(2d,p)
 ****
 36  37 0
 6-311+G(2d,p)
 ****
 1  2  3  4  5  17  18  19  20  21  22  23  24  25 0
 3-21G
 ****
 27  28  29  30  38  39  40  41  42  43  44  45 0
 3-21G
 ****


