%nproc=1
%NoSave
%Mem=1900MB
#P OB98/GEN NMR

erre ene a

0 1
  C      232.152      19.002    -147.624
  O      232.682      19.299    -146.326
  P      233.849      18.436    -145.631
  C      232.447      16.930    -144.076
  O      233.270      16.992    -145.230
  C      232.724      15.672    -143.238
  O      232.419      14.471    -144.016
  C      234.183      15.542    -142.750
  O      234.126      14.999    -141.426
  C      234.760      14.536    -143.741
  O      235.950      13.914    -143.293
  C      233.557      13.589    -143.878
  N      233.620      12.648    -144.995
  C      234.237      11.409    -144.768
  O      234.754      11.135    -143.686
  N      234.269      10.494    -145.800
  C      233.744      10.790    -146.952
  N      233.800       9.834    -147.919
  C      233.107      12.089    -147.239
  C      233.078      12.958    -146.227
  O      234.518      19.140    -144.494
  O      234.902      18.119    -146.798
  H      235.806      18.128    -146.425
  H      236.173      13.199    -143.916
  H      232.676      12.291    -148.207
  H      232.603      13.926    -146.350
  H      233.423      13.036    -142.939
  H      234.980      15.056    -144.679
  H      234.723      16.493    -142.720
  H      232.036      15.669    -142.382
  H      234.241       8.949    -147.680
  H      231.397      16.910    -144.395
  H      233.419       9.953    -148.849
  H      232.604      17.834    -143.469
  P      233.701      15.945    -140.199
  C      236.105      16.690    -139.494
  O      234.843      17.059    -140.028
  O      233.986      14.991    -138.934
  O      232.280      16.415    -140.182
  H      233.418      15.268    -138.190
  H      236.891      17.157    -140.096
  H      236.256      15.606    -139.494
  H      236.177      17.067    -138.466
  H      231.390      19.712    -147.869
  H      231.734      18.017    -147.622
  H      232.936      19.055    -148.350

 3  4  5  6  7  8  9  10  11  12  13  24  27  28  29  30  32 0
 6-311+G(2d,p)
 ****
 34  35 0
 6-311+G(2d,p)
 ****
 1  2  14  15  16  17  18  19  20  21  22  23  25  26 0
 3-21G
 ****
 31  33  36  37  38  39  40  41  42  43  44  45  46 0
 3-21G
 ****


