%nproc=1
%NoSave
%Mem=1900MB
#P OB98/GEN NMR

erre ene a

0 1
  C     -140.959     218.047    -107.618
  O     -140.648     217.325    -108.787
  P     -139.354     216.404    -108.944
  C     -137.922     218.094    -110.339
  O     -138.072     217.352    -109.132
  C     -136.512     217.920    -110.925
  O     -135.547     218.443    -109.974
  C     -136.173     216.428    -111.128
  O     -135.491     216.150    -112.347
  C     -135.459     216.061    -109.830
  O     -134.657     214.892    -109.938
  C     -134.725     217.359    -109.510
  N     -132.234     215.666    -105.403
  C     -132.074     215.307    -106.733
  N     -131.278     214.242    -106.964
  N     -132.667     215.918    -107.723
  C     -133.517     216.893    -107.328
  C     -133.760     217.341    -106.044
  C     -133.076     216.677    -104.961
  O     -133.276     216.879    -103.763
  N     -134.743     218.300    -106.017
  C     -135.121     218.409    -107.273
  N     -134.429     217.565    -108.101
  O     -139.479     215.214    -109.835
  O     -139.146     215.864    -107.434
  H     -134.387     214.638    -109.039
  H     -138.788     214.957    -107.502
  H     -131.805     215.099    -104.672
  H     -135.899     219.076    -107.636
  H     -133.762     217.412    -110.029
  H     -136.226     215.848    -109.090
  H     -130.922     213.660    -106.215
  H     -137.085     215.833    -111.215
  H     -131.337     213.816    -107.882
  H     -136.433     218.501    -111.851
  H     -138.087     219.151    -110.082
  H     -138.685     217.806    -111.067
  P     -135.641     214.889    -113.319
  C     -133.336     213.796    -112.997
  O     -134.734     213.704    -112.759
  O     -134.880     215.311    -114.661
  O     -137.049     214.503    -113.626
  H     -135.386     214.982    -115.439
  H     -132.875     212.830    -112.811
  H     -132.905     214.533    -112.307
  H     -133.138     214.098    -114.027
  H     -141.873     218.584    -107.763
  H     -140.170     218.737    -107.404
  H     -141.071     217.368    -106.799

 3  4  5  6  7  8  9  10  11  12  23  26  30  31 0
 6-311+G(2d,p)
 ****
 33  35  36  37  38 0
 6-311+G(2d,p)
 ****
 1  2  13  14  15  16  17  18  19  20  21  22  24  25 0
 3-21G
 ****
 27  28  29  32  34  39  40  41  42  43  44  45  46  47  48  49 0
 3-21G
 ****


