%nproc=1
%NoSave
%Mem=1900MB
#P OB98/GEN NMR

erre ene a

0 1
  C     -300.282    -634.846    -293.187
  O     -301.685    -634.728    -293.292
  H     -299.913    -635.420    -294.043
  H     -300.016    -635.381    -292.267
  H     -299.813    -633.856    -293.192
  P     -302.416    -633.776    -292.227
  C     -303.808    -632.296    -293.892
  O     -303.801    -633.299    -292.884
  C     -305.060    -632.430    -294.753
  O     -304.996    -633.618    -295.592
  C     -306.339    -632.619    -293.960
  O     -306.743    -631.440    -293.291
  C     -307.295    -633.056    -295.075
  O     -307.749    -631.934    -295.839
  C     -306.372    -633.965    -295.921
  N     -306.633    -635.381    -295.699
  C     -307.162    -636.081    -296.793
  O     -307.372    -635.508    -297.852
  N     -307.470    -637.413    -296.629
  C     -307.240    -637.998    -295.507
  N     -307.571    -639.313    -295.408
  C     -306.652    -637.308    -294.334
  C     -306.386    -636.013    -294.501
  O     -301.526    -632.446    -292.275
  O     -302.581    -634.363    -290.860
  H     -308.156    -632.297    -296.648
  H     -301.413    -632.088    -293.177
  H     -306.474    -637.845    -293.407
  H     -305.956    -635.429    -293.695
  H     -306.500    -633.753    -296.988
  H     -308.183    -633.553    -294.671
  H     -306.234    -633.453    -293.254
  H     -305.118    -631.556    -295.413
  H     -307.987    -639.757    -296.229
  H     -302.905    -632.359    -294.512
  H     -307.466    -639.868    -294.568
  H     -303.800    -631.322    -293.387
  P     -307.982    -631.466    -292.271
  C     -306.903    -630.186    -290.315
  O     -307.846    -630.142    -291.372
  O     -308.128    -632.721    -291.486
  O     -309.242    -631.124    -293.204
  H     -309.185    -630.260    -293.654
  H     -306.907    -629.251    -289.795
  H     -305.927    -630.368    -290.715
  H     -307.163    -630.972    -289.638

 6  7  8  9  10  11  12  13  14  15  16  26  30  31  32  33  35 0
 6-311+G(2d,p)
 ****
 37  38 0
 6-311+G(2d,p)
 ****
 1  2  3  4  5  17  18  19  20  21  22  23  24  25 0
 3-21G
 ****
 27  28  29  34  36  39  40  41  42  43  44  45  46 0
 3-21G
 ****


