%nproc=1
%NoSave
%Mem=1900MB
#P OB98/GEN NMR

erre ene a

0 1
  C       57.974     -26.047      42.008
  O       59.123     -25.327      41.605
  H       57.231     -25.994      41.207
  H       57.542     -25.618      42.915
  H       58.231     -27.095      42.178
  P       60.246     -25.017      42.710
  C       59.381     -22.666      43.322
  O       59.550     -24.013      43.756
  C       59.998     -21.683      44.316
  O       59.275     -21.701      45.566
  C       61.436     -22.001      44.695
  O       62.367     -21.857      43.647
  C       61.612     -21.184      45.965
  O       61.923     -19.818      45.695
  C       60.203     -21.293      46.597
  N       60.175     -22.201      47.737
  C       58.945     -22.352      48.366
  O       57.927     -21.751      48.023
  N       58.925     -23.199      49.440
  C       60.001     -23.857      49.960
  O       59.920     -24.589      50.940
  C       61.283     -23.628      49.276
  C       61.312     -22.824      48.210
  O       61.559     -24.525      42.178
  O       60.356     -26.381      43.537
  H       61.222     -19.477      45.107
  H       61.180     -26.402      44.083
  H       58.039     -23.334      49.901
  H       62.160     -24.125      49.668
  H       62.247     -22.642      47.686
  H       59.866     -20.306      46.943
  H       62.409     -21.578      46.600
  H       61.487     -23.055      44.996
  H       59.910     -20.676      43.897
  H       58.306     -22.473      43.243
  H       59.837     -22.541      42.334
  P       63.596     -22.844      43.412
  C       65.405     -21.161      44.264
  O       64.781     -22.431      44.409
  O       63.946     -23.151      41.993
  O       63.052     -24.208      44.086
  H       63.417     -24.951      43.566
  H       66.168     -21.052      45.006
  H       64.675     -20.389      44.387
  H       65.841     -21.087      43.290

 6  7  8  9  10  11  12  13  14  15  16  26  31  32  33  34  35 0
 6-311+G(2d,p)
 ****
 36  37 0
 6-311+G(2d,p)
 ****
 1  2  3  4  5  17  18  19  20  21  22  23  24  25 0
 3-21G
 ****
 27  28  29  30  38  39  40  41  42  43  44  45 0
 3-21G
 ****


