%nproc=1
%NoSave
%Mem=1900MB
#P OB98/GEN NMR

erre ene a

0 1
  C       93.016    -251.188      29.834
  O       93.730    -249.951      29.879
  P       94.685    -249.512      28.667
  C       93.988    -247.050      28.748
  O       95.077    -247.961      28.841
  C       94.356    -245.618      29.154
  O       94.608    -245.529      30.578
  C       95.583    -245.042      28.442
  O       95.332    -243.641      28.296
  C       96.689    -245.293      29.453
  O       97.837    -244.486      29.225
  C       95.946    -245.029      30.768
  N       96.602    -245.654      31.913
  C       96.989    -244.815      32.957
  O       96.826    -243.595      32.865
  N       97.597    -245.364      34.061
  C       97.880    -246.630      34.071
  N       98.503    -247.112      35.179
  C       97.570    -247.540      32.952
  C       96.927    -246.991      31.921
  O       94.176    -249.872      27.308
  O       96.065    -250.274      28.969
  H       98.307    -244.833      28.436
  H       96.515    -250.471      28.125
  H       97.848    -248.584      32.994
  H       96.649    -247.577      31.054
  H       95.871    -243.950      30.960
  H       97.007    -246.342      29.402
  H       95.782    -245.507      27.474
  H       93.481    -244.987      28.952
  H       98.724    -246.449      35.913
  H       93.179    -247.408      29.395
  H       98.870    -248.050      35.245
  H       93.605    -247.058      27.721
  P       94.989    -242.985      26.881
  C       92.531    -242.371      27.234
  O       93.856    -241.881      27.139
  O       94.669    -243.961      25.795
  O       96.280    -242.104      26.506
  H       96.266    -241.905      25.554
  H       91.885    -241.577      27.618
  H       92.480    -243.229      27.910
  H       92.176    -242.665      26.244
  H       92.439    -251.299      30.728
  H       93.711    -251.998      29.755
  H       92.364    -251.193      28.986

 3  4  5  6  7  8  9  10  11  12  13  23  27  28  29  30  32 0
 6-311+G(2d,p)
 ****
 34  35 0
 6-311+G(2d,p)
 ****
 1  2  14  15  16  17  18  19  20  21  22  24  25  26 0
 3-21G
 ****
 31  33  36  37  38  39  40  41  42  43  44  45  46 0
 3-21G
 ****


