%nproc=1
%NoSave
%Mem=1900MB
#P OB98/GEN NMR

erre ene a

0 1
  C      -48.929    -115.077       8.442
  O      -48.881    -116.019       9.494
  H      -48.670    -115.581       7.506
  H      -48.209    -114.275       8.621
  H      -49.935    -114.662       8.349
  P      -49.276    -115.487      10.955
  C      -51.716    -115.980      10.197
  O      -50.832    -115.103      10.888
  C      -52.948    -116.253      11.055
  O      -52.536    -116.791      12.332
  C      -53.767    -115.009      11.381
  O      -54.603    -114.627      10.301
  C      -54.541    -115.479      12.609
  O      -55.709    -116.225      12.245
  C      -53.527    -116.397      13.306
  N      -53.488    -116.037      18.390
  C      -54.195    -116.818      17.545
  N      -54.133    -116.867      16.198
  C      -53.218    -115.996      15.735
  C      -52.429    -115.132      16.475
  C      -52.587    -115.171      17.868
  N      -51.894    -114.348      18.727
  N      -51.646    -114.359      15.640
  C      -51.947    -114.760      14.420
  N      -52.889    -115.751      14.434
  O      -48.537    -114.068      11.031
  O      -48.888    -116.382      12.085
  H      -56.119    -116.528      13.079
  H      -47.671    -114.173      11.468
  H      -54.908    -117.490      18.013
  H      -51.522    -114.359      13.508
  H      -53.994    -117.316      13.682
  H      -54.869    -114.636      13.216
  H      -53.108    -114.185      11.671
  H      -53.564    -117.004      10.549
  H      -51.198    -116.927       9.997
  H      -51.999    -115.521       9.246
  H      -52.077    -114.416      19.713
  H      -51.300    -113.628      18.342
  P      -54.971    -113.078      10.132
  C      -52.635    -112.343       9.252
  O      -53.610    -112.238      10.281
  O      -55.773    -112.739      11.476
  O      -55.767    -112.757       8.912
  H      -56.734    -112.742      11.306
  H      -51.793    -111.729       9.495
  H      -53.058    -112.017       8.325
  H      -52.320    -113.362       9.162

 6  7  8  9  10  11  12  13  14  15  25  28  32  33  34  35 0
 6-311+G(2d,p)
 ****
 36  37  40 0
 6-311+G(2d,p)
 ****
 1  2  3  4  5  16  17  18  19  20  21  22  23  24 0
 3-21G
 ****
 26  27  29  30  31  38  39 41  42  43  44  45  46  47  48 0
 3-21G
 ****


