%nproc=1
%NoSave
%Mem=1900MB
#P OB98/GEN NMR

erre ene a

0 1
  C      123.942     786.954     211.961
  O      124.181     787.916     212.960
  P      123.368     789.294     212.964
  C      125.545     790.533     212.335
  O      124.413     790.497     213.201
  C      126.560     791.574     212.815
  O      126.024     792.921     212.691
  C      126.951     791.424     214.280
  O      127.792     790.316     214.498
  C      127.573     792.790     214.545
  O      128.940     792.828     214.062
  C      126.680     793.719     213.693
  N      125.737     794.466     214.503
  C      125.932     795.860     214.539
  O      126.900     796.372     213.993
  N      125.009     796.627     215.212
  C      124.052     796.051     215.884
  N      123.127     796.855     216.474
  C      123.913     794.585     215.999
  C      124.758     793.861     215.264
  O      122.160     789.333     213.851
  O      122.944     789.493     211.426
  H      122.001     789.705     211.381
  H      129.468     792.233     214.659
  H      123.125     794.143     216.621
  H      124.720     792.770     215.258
  H      127.311     794.422     213.131
  H      127.604     793.035     215.610
  H      126.032     791.325     214.887
  H      127.441     791.494     212.175
  H      123.253     797.857     216.385
  H      125.203     790.791     211.318
  H      122.201     796.542     216.737
  H      126.003     789.537     212.313
  P      127.315     789.230     215.595
  C      128.932     789.444     217.604
  O      128.604     788.764     216.402
  O      126.922     787.959     214.705
  O      126.157     789.670     216.450
  H      126.143     787.489     215.101
  H      129.599     788.782     218.194
  H      128.033     789.651     218.194
  H      129.450     790.364     217.375
  H      124.575     786.107     212.123
  H      124.151     787.377     211.001
  H      122.918     786.647     212.000

 3  4  5  6  7  8  9  10  11  12  13  24  27  28  29  30  32 0
 6-311+G(2d,p)
 ****
 34  35 0
 6-311+G(2d,p)
 ****
 1  2  14  15  16  17  18  19  20  21  22  23  25  26 0
 3-21G
 ****
 31  33  36  37  38  39  40  41  42  43  44  45  46 0
 3-21G
 ****


