%nproc=1
%NoSave
%Mem=1900MB
#P OB98/GEN NMR

erre ene a

0 1
  C     -207.764    -624.063     213.401
  O     -208.340    -624.383     214.652
  P     -207.316    -624.717     215.859
  C     -207.246    -627.299     215.435
  O     -206.547    -626.059     215.435
  C     -206.287    -628.429     215.805
  O     -205.099    -628.366     214.992
  C     -205.824    -628.403     217.253
  O     -206.797    -628.985     218.099
  C     -204.527    -629.204     217.167
  O     -204.801    -630.622     217.168
  C     -203.962    -628.748     215.816
  N     -199.154    -627.492     216.771
  C     -199.811    -628.702     216.945
  N     -199.059    -629.733     217.391
  N     -201.079    -628.880     216.694
  C     -201.709    -627.754     216.260
  C     -201.169    -626.507     216.072
  C     -199.754    -626.330     216.301
  O     -199.102    -625.314     216.075
  N     -202.116    -625.610     215.643
  C     -203.220    -626.334     215.552
  N     -203.019    -627.650     215.895
  O     -208.296    -625.176     217.039
  O     -206.414    -623.586     216.260
  H     -203.957    -631.104     217.069
  H     -208.446    -624.441     217.664
  H     -198.174    -627.423     216.967
  H     -204.177    -625.958     215.220
  H     -203.447    -629.565     215.287
  H     -203.865    -629.010     218.015
  H     -198.087    -629.661     217.629
  H     -205.597    -627.373     217.562
  H     -199.529    -630.629     217.531
  H     -206.796    -629.379     215.584
  H     -207.661    -627.473     214.434
  H     -208.080    -627.247     216.145
  P     -207.001    -628.331     219.556
  C     -205.386    -629.704     221.054
  O     -205.618    -628.503     220.346
  O     -207.998    -629.354     220.280
  O     -207.568    -626.945     219.531
  H     -208.609    -628.861     220.859
  H     -204.311    -629.898     221.065
  H     -205.892    -630.559     220.576
  H     -205.747    -629.599     222.075
  H     -208.540    -623.864     212.692
  H     -207.172    -624.886     213.060
  H     -207.145    -623.197     213.505

 3  4  5  6  7  8  9  10  11  12  23  26  30  31 0
 6-311+G(2d,p)
 ****
 33  35  36  37  38 0
 6-311+G(2d,p)
 ****
 1  2  13  14  15  16  17  18  19  20  21  22  24  25 0
 3-21G
 ****
 27  28  29  32  34  39  40  41  42  43  44  45  46  47  48  49 0
 3-21G
 ****


