%nproc=1
%NoSave
%Mem=1900MB
#P OB98/GEN NMR

erre ene a

0 1
  C      -90.576      40.472    -148.923
  O      -90.653      40.712    -147.514
  P      -92.029      41.319    -146.952
  C      -93.409      39.304    -146.084
  O      -92.545      40.383    -145.752
  C      -93.736      38.447    -144.852
  O      -92.562      37.709    -144.409
  C      -94.229      39.263    -143.651
  O      -95.180      38.460    -142.936
  C      -92.979      39.407    -142.800
  O      -93.298      39.735    -141.449
  C      -92.342      38.035    -143.019
  N      -88.920      38.020    -139.228
  C      -90.267      38.017    -139.229
  N      -91.111      38.045    -140.286
  C      -90.419      38.031    -141.437
  C      -89.039      38.044    -141.596
  C      -88.270      38.039    -140.418
  N      -86.893      38.066    -140.419
  N      -88.708      38.077    -142.940
  C      -89.863      38.093    -143.574
  N      -90.923      38.034    -142.711
  O      -93.066      41.023    -148.135
  O      -91.961      42.782    -146.637
  H      -93.620      40.663    -141.428
  H      -93.292      41.855    -148.594
  H      -90.737      37.997    -138.246
  H      -89.989      38.148    -144.646
  H      -92.806      37.256    -142.405
  H      -92.344      40.204    -143.202
  H      -94.673      40.231    -143.904
  H      -94.501      37.714    -145.137
  H      -92.946      38.672    -146.848
  H      -86.418      38.094    -139.531
  H      -86.403      38.132    -141.301
  H      -94.320      39.709    -146.542
  P      -96.420      39.236    -142.280
  C      -97.909      38.827    -144.372
  O      -97.737      38.645    -142.975
  O      -96.302      40.718    -142.883
  O      -96.418      39.239    -140.786
  H      -96.722      41.361    -142.281
  H      -98.321      37.908    -144.800
  H      -96.961      39.055    -144.876
  H      -98.611      39.644    -144.540
  H      -89.614      40.070    -149.164
  H      -90.721      41.392    -149.450
  H      -91.336      39.774    -149.208

 3  4  5  6  7  8  9  10  11  12  22  25  29  30  31  32 0
 6-311+G(2d,p)
 ****
 33  36  37 0
 6-311+G(2d,p)
 ****
 1  2  13  14  15  16  17  18  19  20  21  23  24  26 0
 3-21G
 ****
 27  28  34  35  38  39  40  41  42  43  44  45  46  47  48 0
 3-21G
 ****


