%nproc=1
%NoSave
%Mem=1900MB
#P OB98/GEN NMR

erre ene a

0 1
  C      220.076    -131.246      -2.063
  O      220.130    -130.292      -3.103
  P      221.243    -129.137      -3.126
  C      219.563    -127.568      -1.973
  O      220.434    -127.752      -3.078
  C      219.326    -126.082      -1.689
  O      218.235    -125.937      -0.739
  C      220.541    -125.341      -1.116
  O      220.477    -124.007      -1.632
  C      220.256    -125.350       0.374
  O      220.995    -124.361       1.080
  C      218.733    -125.167       0.376
  N      218.134    -125.578       1.641
  C      218.085    -124.617       2.653
  O      218.602    -123.509       2.486
  N      217.502    -124.948       3.853
  C      217.101    -126.163       4.056
  N      216.527    -126.431       5.259
  C      217.251    -127.239       3.057
  C      217.756    -126.878       1.880
  O      222.244    -129.243      -4.225
  O      221.890    -129.207      -1.665
  H      221.950    -124.578       1.007
  H      222.516    -129.972      -1.601
  H      216.952    -128.250       3.292
  H      217.902    -127.597       1.086
  H      218.469    -124.116       0.194
  H      220.521    -126.327       0.795
  H      221.497    -125.806      -1.364
  H      219.006    -125.609      -2.626
  H      216.431    -125.660       5.909
  H      220.031    -128.023      -1.094
  H      216.109    -127.319       5.487
  H      218.616    -128.086      -2.153
  P      221.431    -123.531      -2.828
  C      223.559    -123.194      -1.447
  O      222.534    -122.563      -2.191
  O      220.721    -122.977      -4.022
  O      222.273    -124.841      -3.211
  H      222.690    -124.716      -4.084
  H      224.384    -122.491      -1.307
  H      223.934    -124.081      -1.968
  H      223.172    -123.488      -0.467
  H      219.265    -131.921      -2.240
  H      219.928    -130.747      -1.128
  H      220.995    -131.793      -2.033

 3  4  5  6  7  8  9  10  11  12  13  23  27  28  29  30  32 0
 6-311+G(2d,p)
 ****
 34  35 0
 6-311+G(2d,p)
 ****
 1  2  14  15  16  17  18  19  20  21  22  24  25  26 0
 3-21G
 ****
 31  33  36  37  38  39  40  41  42  43  44  45  46 0
 3-21G
 ****


