%nproc=1
%NoSave
%Mem=1900MB
#P OB98/GEN NMR

erre ene a

0 1
  C     -505.175    -503.528     282.023
  O     -506.103    -502.850     282.843
  H     -504.817    -504.409     282.562
  H     -504.324    -502.874     281.814
  H     -505.631    -503.853     281.083
  P     -507.104    -501.798     282.163
  C     -505.884    -499.795     283.238
  O     -507.122    -500.481     283.077
  C     -506.060    -498.467     283.982
  O     -506.779    -497.526     283.157
  C     -506.885    -498.624     285.264
  O     -506.155    -499.041     286.405
  C     -507.437    -497.213     285.452
  O     -506.489    -496.385     286.149
  C     -507.615    -496.723     284.011
  N     -511.941    -494.184     283.017
  C     -510.752    -493.708     283.545
  N     -510.739    -492.408     283.908
  N     -509.690    -494.451     283.717
  C     -509.887    -495.755     283.397
  C     -511.013    -496.347     282.881
  C     -512.169    -495.504     282.644
  O     -513.242    -495.875     282.180
  N     -510.829    -497.693     282.682
  C     -509.621    -497.928     283.146
  N     -508.998    -496.777     283.568
  O     -508.556    -502.431     282.438
  O     -506.889    -501.563     280.699
  H     -505.658    -496.373     285.638
  H     -509.180    -502.133     281.753
  H     -512.715    -493.561     282.879
  H     -509.146    -498.906     283.175
  H     -507.281    -495.682     283.895
  H     -508.355    -497.212     286.039
  H     -511.566    -491.825     283.903
  H     -507.729    -499.300     285.094
  H     -509.997    -492.097     284.534
  H     -505.074    -498.033     284.183
  H     -505.495    -499.609     282.239
  H     -505.164    -500.429     283.759
  P     -506.679    -500.287     287.271
  C     -507.898    -499.322     289.357
  O     -506.697    -499.808     288.804
  O     -505.439    -501.300     287.206
  O     -507.936    -500.909     286.786
  H     -505.585    -501.962     286.502
  H     -507.735    -499.049     290.379
  H     -508.648    -500.084     289.307
  H     -508.223    -498.465     288.806

 6  7  8  9  10  11  12  13  14  15  26  29  33  34 0
 6-311+G(2d,p)
 ****
 36  38  39  40  41 0
 6-311+G(2d,p)
 ****
 1  2  3  4  5  16  17  18  19  20  21  22  23  24  25 0
 3-21G
 ****
 27  28  30  31  32  35  37  42  43  44  45  46  47 0
 3-21G
 ****
 48  49 0
 3-21G
 ****


