%nproc=1
%NoSave
%Mem=1900MB
#P OB98/GEN NMR

erre ene a

0 1
  C     -123.719     119.988     299.287
  O     -124.965     119.410     299.636
  H     -123.578     120.898     299.878
  H     -123.698     120.259     298.229
  H     -122.907     119.293     299.510
  P     -125.476     118.147     298.791
  C     -127.010     119.698     297.397
  O     -125.956     118.737     297.383
  C     -127.096     120.402     296.045
  O     -125.966     121.276     295.863
  C     -127.071     119.439     294.864
  O     -128.320     118.794     294.708
  C     -126.672     120.378     293.740
  O     -127.795     121.130     293.266
  C     -125.648     121.294     294.450
  N     -124.267     120.886     294.219
  C     -123.589     121.566     293.198
  O     -124.151     122.456     292.562
  N     -122.293     121.201     292.921
  C     -121.722     120.259     293.603
  N     -120.440     119.947     293.276
  C     -122.398     119.527     294.693
  C     -123.655     119.886     294.941
  O     -126.474     117.248     299.458
  O     -124.124     117.371     298.419
  H     -128.529     120.491     293.192
  H     -123.901     116.723     299.111
  H     -121.878     118.749     295.240
  H     -124.225     119.397     295.727
  H     -125.762     122.331     294.115
  H     -126.258     119.833     292.892
  H     -126.267     118.703     294.994
  H     -128.004     121.017     296.030
  H     -120.024     120.467     292.513
  H     -126.780     120.420     298.187
  H     -119.869     119.294     293.791
  H     -127.969     119.218     297.633
  P     -128.394     117.239     294.329
  C     -129.114     117.704     291.892
  O     -128.102     117.172     292.749
  O     -129.624     116.526     294.784
  O     -127.045     116.644     294.966
  H     -127.110     116.574     295.946
  H     -128.807     117.603     290.872
  H     -129.265     118.739     292.118
  H     -130.028     117.168     292.044

 6  7  8  9  10  11  12  13  14  15  16  26  30  31  32  33  35 0
 6-311+G(2d,p)
 ****
 37  38 0
 6-311+G(2d,p)
 ****
 1  2  3  4  5  17  18  19  20  21  22  23  24  25 0
 3-21G
 ****
 27  28  29  34  36  39  40  41  42  43  44  45  46 0
 3-21G
 ****


