%nproc=1
%NoSave
%Mem=1900MB
#P OB98/GEN NMR

erre ene a

0 1
  C      406.376     839.955    -229.804
  O      405.940     839.498    -228.547
  P      406.236     840.327    -227.211
  C      407.866     838.679    -225.941
  O      406.593     839.307    -226.040
  C      407.901     837.799    -224.686
  O      407.721     838.623    -223.499
  C      406.797     836.766    -224.715
  O      407.297     835.521    -225.245
  C      406.395     836.670    -223.258
  O      407.321     835.817    -222.527
  C      406.548     838.146    -222.790
  N      405.419     839.074    -223.075
  C      404.283     839.016    -222.288
  O      404.141     838.268    -221.324
  N      403.270     839.891    -222.661
  C      403.338     840.790    -223.691
  O      402.355     841.355    -224.151
  C      404.655     840.967    -224.294
  C      405.616     840.107    -223.993
  O      404.798     840.888    -226.799
  O      407.240     841.423    -227.354
  H      408.151     836.300    -222.448
  H      404.681     841.798    -227.086
  H      402.391     839.760    -222.174
  H      404.774     841.765    -225.011
  H      406.595     840.194    -224.448
  H      406.756     838.192    -221.717
  H      405.415     836.214    -223.156
  H      405.943     837.121    -225.293
  H      408.897     837.331    -224.620
  H      408.639     839.466    -225.888
  H      408.071     838.103    -226.832
  P      406.737     835.003    -226.653
  C      405.706     832.834    -225.743
  O      406.735     833.403    -226.527
  O      407.433     835.555    -227.863
  O      405.197     835.415    -226.616
  H      405.061     836.245    -227.113
  H      405.717     831.750    -225.871
  H      404.739     833.250    -226.041
  H      405.896     833.057    -224.683
  H      406.077     839.259    -230.560
  H      407.442     840.043    -229.801
  H      405.940     840.911    -230.007

 3  4  5  6  7  8  9  10  11  12  13  23  28  29  30  31  32 0
 6-311+G(2d,p)
 ****
 33  34 0
 6-311+G(2d,p)
 ****
 1  2  14  15  16  17  18  19  20  21  22  24  25  26  27 0
 3-21G
 ****
 35  36  37  38  39  40  41  42  43  44  45 0
 3-21G
 ****


