%nproc=1
%NoSave
%Mem=1900MB
#P OB98/GEN NMR

erre ene a

0 1
  C     -155.476     900.166    -341.508
  O     -154.815     901.302    -340.965
  P     -153.670     901.050    -339.844
  C     -151.846     902.027    -341.449
  O     -152.248     900.957    -340.603
  C     -150.584     901.637    -342.236
  O     -150.844     900.535    -343.135
  C     -150.068     902.775    -343.147
  O     -149.264     903.687    -342.396
  C     -149.184     901.981    -344.118
  O     -147.940     901.671    -343.504
  C     -150.011     900.693    -344.316
  N     -150.281     899.702    -349.338
  C     -149.252     899.620    -348.456
  N     -149.249     899.911    -347.137
  C     -150.472     900.320    -346.750
  C     -151.614     900.474    -347.534
  C     -151.481     900.133    -348.888
  N     -152.526     900.234    -349.790
  N     -152.673     900.933    -346.777
  C     -152.199     901.058    -345.562
  N     -150.868     900.709    -345.493
  O     -153.951     899.547    -339.376
  O     -153.718     902.002    -338.695
  H     -147.405     902.481    -343.506
  H     -153.731     899.446    -338.448
  H     -148.299     899.253    -348.860
  H     -152.785     901.380    -344.694
  H     -149.374     899.798    -344.388
  H     -148.981     902.541    -345.030
  H     -150.894     903.258    -343.680
  H     -149.796     901.350    -341.523
  H     -151.655     902.917    -340.846
  H     -152.360     899.943    -350.731
  H     -153.428     900.526    -349.455
  H     -152.681     902.280    -342.121
  P     -149.989     905.024    -341.904
  C     -149.445     904.602    -339.381
  O     -150.432     904.748    -340.386
  O     -151.371     905.060    -342.721
  O     -149.187     906.272    -342.114
  H     -151.657     905.968    -342.873
  H     -149.914     904.718    -338.376
  H     -148.671     905.385    -339.496
  H     -148.971     903.610    -339.446
  H     -156.199     900.485    -342.229
  H     -155.967     899.630    -340.723
  H     -154.759     899.528    -341.981

 3  4  5  6  7  8  9  10  11  12  22  25  29  30  31  32 0
 6-311+G(2d,p)
 ****
 33  36  37 0
 6-311+G(2d,p)
 ****
 1  2  13  14  15  16  17  18  19  20  21  23  24  26 0
 3-21G
 ****
 27  28  34  35  38  39  40  41  42  43  44  45  46  47  48 0
 3-21G
 ****


