%nproc=1
%NoSave
%Mem=1900MB
#P OB98/GEN NMR

erre ene a

0 1
  C      369.294    -115.150     166.708
  O      370.617    -115.651     166.559
  P      371.783    -114.611     166.194
  C      372.042    -112.673     164.488
  O      371.329    -113.846     164.855
  C      371.387    -111.978     163.292
  O      370.028    -111.598     163.656
  C      372.105    -110.709     162.820
  O      371.927    -110.625     161.398
  C      371.311    -109.599     163.485
  O      371.486    -108.342     162.830
  C      369.899    -110.178     163.396
  N      368.188    -105.774     165.362
  C      369.077    -106.032     164.383
  N      369.485    -107.235     163.910
  C      368.865    -108.234     164.567
  C      367.962    -108.124     165.615
  C      367.618    -106.818     166.012
  N      366.700    -106.550     167.005
  N      367.570    -109.373     166.051
  C      368.222    -110.224     165.283
  N      368.998    -109.580     164.358
  O      372.963    -115.573     165.692
  O      372.234    -113.738     167.315
  H      370.750    -107.757     163.089
  H      373.704    -115.557     166.334
  H      369.523    -105.164     163.908
  H      368.169    -111.298     165.359
  H      369.463    -110.054     162.399
  H      371.629    -109.485     164.527
  H      373.168    -110.677     163.073
  H      371.307    -112.701     162.475
  H      373.062    -112.951     164.214
  H      366.407    -105.599     167.141
  H      366.131    -107.312     167.364
  H      372.087    -111.990     165.344
  P      372.506    -109.314     160.674
  C      371.879    -106.797     160.654
  O      371.509    -108.109     161.024
  O      372.225    -109.602     159.121
  O      373.955    -109.061     160.933
  H      372.887    -109.135     158.572
  H      370.979    -106.231     160.404
  H      372.560    -106.787     159.797
  H      372.378    -106.313     161.505
  H      368.633    -115.956     166.949
  H      368.981    -114.693     165.793
  H      369.274    -114.425     167.494

 3  4  5  6  7  8  9  10  11  12  22  25  29  30  31  32 0
 6-311+G(2d,p)
 ****
 33  36  37 0
 6-311+G(2d,p)
 ****
 1  2  13  14  15  16  17  18  19  20  21  23  24  26 0
 3-21G
 ****
 27  28  34  35  38  39  40  41  42  43  44  45  46  47  48 0
 3-21G
 ****


