%nproc=1
%NoSave
%Mem=1900MB
#P OB98/GEN NMR

erre ene a

0 1
  C      -22.020     -10.475      15.100
  O      -20.962     -11.298      14.610
  P      -20.720     -12.737      15.278
  C      -19.152     -11.689      17.023
  O      -20.277     -12.528      16.808
  C      -18.319     -12.126      18.236
  O      -19.076     -11.972      19.466
  C      -17.837     -13.583      18.178
  O      -16.538     -13.618      18.781
  C      -18.853     -14.294      19.049
  O      -18.397     -15.563      19.490
  C      -19.061     -13.244      20.143
  N      -20.281     -13.463      20.904
  C      -20.142     -13.850      22.237
  O      -19.025     -14.092      22.695
  N      -21.274     -13.982      23.004
  C      -22.440     -13.885      22.445
  N      -23.537     -14.002      23.242
  C      -22.623     -13.656      20.999
  C      -21.514     -13.431      20.303
  O      -19.859     -13.670      14.495
  O      -22.210     -13.316      15.422
  H      -17.458     -15.487      19.765
  H      -22.185     -14.284      15.287
  H      -23.612     -13.665      20.565
  H      -21.544     -13.247      19.239
  H      -18.213     -13.233      20.840
  H      -19.780     -14.447      18.483
  H      -17.771     -13.979      17.161
  H      -17.451     -11.458      18.305
  H      -23.396     -14.184      24.227
  H      -19.495     -10.662      17.176
  H      -24.479     -13.887      22.891
  H      -18.541     -11.671      16.113
  P      -15.244     -13.474      17.843
  C      -15.008     -15.891      16.918
  O      -15.366     -14.550      16.663
  O      -14.099     -14.123      18.767
  O      -14.860     -12.082      17.459
  H      -13.235     -13.757      18.502
  H      -15.412     -16.519      16.119
  H      -15.416     -16.238      17.871
  H      -13.919     -15.989      16.926
  H      -22.043      -9.558      14.549
  H      -21.858     -10.265      16.137
  H      -22.953     -10.985      14.981

 3  4  5  6  7  8  9  10  11  12  13  23  27  28  29  30  32 0
 6-311+G(2d,p)
 ****
 34  35 0
 6-311+G(2d,p)
 ****
 1  2  14  15  16  17  18  19  20  21  22  24  25  26 0
 3-21G
 ****
 31  33  36  37  38  39  40  41  42  43  44  45  46 0
 3-21G
 ****


