%nproc=1
%NoSave
%Mem=1900MB
#P OB98/GEN NMR

erre ene a

0 1
  C     -115.784    -491.587    -347.345
  O     -114.801    -490.916    -348.113
  P     -113.261    -491.257    -347.800
  C     -113.062    -489.332    -346.057
  O     -112.588    -489.901    -347.272
  C     -112.311    -488.035    -345.758
  O     -110.901    -488.298    -345.625
  C     -112.430    -486.971    -346.839
  O     -113.697    -486.335    -346.800
  C     -111.251    -486.067    -346.474
  O     -111.605    -485.219    -345.373
  C     -110.190    -487.097    -346.035
  N     -106.499    -485.278    -349.081
  C     -107.272    -484.681    -348.147
  N     -108.249    -485.230    -347.392
  C     -108.392    -486.534    -347.669
  C     -107.692    -487.271    -348.609
  C     -106.703    -486.594    -349.340
  N     -105.922    -487.207    -350.293
  N     -108.132    -488.579    -348.634
  C     -109.078    -488.634    -347.715
  N     -109.261    -487.428    -347.096
  O     -112.626    -491.444    -349.256
  O     -113.048    -492.458    -346.935
  H     -110.811    -484.702    -345.139
  H     -111.925    -492.127    -349.244
  H     -107.076    -483.629    -347.979
  H     -109.647    -489.515    -347.460
  H     -109.603    -486.755    -345.174
  H     -110.930    -485.425    -347.299
  H     -112.267    -487.413    -347.831
  H     -112.680    -487.647    -344.795
  H     -112.895    -490.032    -345.237
  H     -105.340    -486.618    -350.866
  H     -106.166    -488.144    -350.579
  H     -114.138    -489.151    -346.149
  P     -114.775    -486.775    -347.907
  C     -114.062    -485.039    -349.655
  O     -115.059    -485.423    -348.728
  O     -116.100    -486.930    -347.019
  O     -114.392    -487.965    -348.716
  H     -116.242    -486.163    -346.440
  H     -114.402    -484.139    -350.176
  H     -113.888    -485.832    -350.382
  H     -113.130    -484.804    -349.131
  H     -116.757    -491.269    -347.655
  H     -115.646    -491.356    -346.309
  H     -115.691    -492.643    -347.491

 3  4  5  6  7  8  9  10  11  12  22  25  29  30  31  32 0
 6-311+G(2d,p)
 ****
 33  36  37 0
 6-311+G(2d,p)
 ****
 1  2  13  14  15  16  17  18  19  20  21  23  24  26 0
 3-21G
 ****
 27  28  34  35  38  39  40  41  42  43  44  45  46  47  48 0
 3-21G
 ****


