%nproc=1
%NoSave
%Mem=1900MB
#P OB98/GEN NMR

erre ene a

0 1
  C      352.626      50.188     -96.880
  O      353.503      49.075     -96.857
  H      352.583      50.598     -97.894
  H      351.623      49.846     -96.601
  H      352.950      50.956     -96.176
  P      355.071      49.385     -96.941
  C      355.388      49.880     -94.411
  O      355.404      50.395     -95.736
  C      356.808      49.675     -93.892
  O      357.496      50.960     -93.914
  C      356.896      49.123     -92.462
  O      357.982      48.189     -92.392
  C      357.236      50.349     -91.631
  O      357.911      50.019     -90.422
  C      358.091      51.135     -92.612
  N      361.170      54.815     -90.915
  C      361.419      53.604     -91.447
  N      360.542      52.702     -91.934
  C      359.288      53.189     -91.880
  C      358.871      54.414     -91.374
  C      359.885      55.244     -90.860
  N      359.624      56.452     -90.249
  N      357.495      54.527     -91.454
  C      357.085      53.381     -91.976
  N      358.137      52.540     -92.251
  O      355.174      50.311     -98.248
  O      355.967      48.188     -97.040
  H      357.332      49.449     -89.886
  H      355.272      49.750     -99.039
  H      362.471      53.310     -91.483
  H      356.055      53.097     -92.144
  H      359.135      50.780     -92.659
  H      356.320      50.890     -91.383
  H      355.972      48.635     -92.118
  H      357.344      49.016     -94.591
  H      354.866      48.910     -94.410
  H      360.404      56.931     -89.810
  H      358.669      56.731     -90.099
  H      354.844      50.572     -93.762
  P      357.929      46.902     -93.351
  C      359.944      47.654     -94.818
  O      358.566      47.308     -94.768
  O      356.366      46.758     -93.673
  O      358.480      45.665     -92.728
  H      356.136      45.821     -93.788
  H      360.214      47.898     -95.824
  H      360.532      46.826     -94.481
  H      360.123      48.499     -94.186

 6  7  8  9  10  11  12  13  14  15  25  28  32  33  34  35 0
 6-311+G(2d,p)
 ****
 36  39  40 0
 6-311+G(2d,p)
 ****
 1  2  3  4  5  16  17  18  19  20  21  22  23  24 0
 3-21G
 ****
 26  27  29  30  31  37  38  41  42  43  44  45  46  47 0
 3-21G
 ****
 48 0
 3-21G
 ****


