%nproc=1
%NoSave
%Mem=1900MB
#P OB98/GEN NMR

erre ene a

0 1
  C      344.507     -46.690     434.038
  O      343.509     -47.115     434.945
  H      344.159     -46.887     433.021
  H      345.433     -47.245     434.203
  H      344.691     -45.616     434.142
  P      343.777     -46.937     436.518
  C      343.567     -49.371     437.394
  O      344.437     -48.333     436.963
  C      344.358     -50.496     438.046
  O      345.078     -51.274     437.064
  C      345.431     -50.037     439.028
  O      344.916     -49.560     440.264
  C      346.212     -51.326     439.189
  O      345.487     -52.233     440.034
  C      346.250     -51.830     437.726
  N      347.473     -51.435     437.019
  C      348.523     -52.363     437.020
  O      348.408     -53.445     437.599
  N      349.701     -52.025     436.392
  C      349.824     -50.858     435.832
  N      351.013     -50.577     435.233
  C      348.749     -49.849     435.826
  C      347.618     -50.196     436.430
  O      342.608     -46.490     437.339
  O      345.034     -45.944     436.600
  H      346.121     -52.904     440.346
  H      345.234     -45.793     437.554
  H      348.917     -48.878     435.377
  H      346.780     -49.499     436.473
  H      346.155     -52.925     437.686
  H      347.202     -51.181     439.637
  H      346.091     -49.283     438.565
  H      343.636     -51.172     438.528
  H      351.733     -51.289     435.252
  H      343.014     -49.734     436.518
  H      351.229     -49.668     434.841
  H      342.848     -48.980     438.122
  P      345.981     -48.987     441.324
  C      345.170     -50.693     443.135
  O      346.249     -50.171     442.373
  O      345.126     -47.909     442.149
  O      347.222     -48.395     440.724
  H      345.294     -47.012     441.814
  H      345.530     -51.470     443.777
  H      344.427     -51.091     442.476
  H      344.740     -49.912     443.726

 6  7  8  9  10  11  12  13  14  15  16  26  30  31  32  33  35 0
 6-311+G(2d,p)
 ****
 37  38 0
 6-311+G(2d,p)
 ****
 1  2  3  4  5  17  18  19  20  21  22  23  24  25 0
 3-21G
 ****
 27  28  29  34  36  39  40  41  42  43  44  45  46 0
 3-21G
 ****


