%nproc=1
%NoSave
%Mem=1900MB
#P OB98/GEN NMR

erre ene a

0 1
  C      -34.476     276.048     217.101
  O      -34.364     276.483     215.743
  P      -34.529     278.043     215.405
  C      -32.538     278.881     216.797
  O      -33.088     278.750     215.492
  C      -31.040     279.216     216.771
  O      -30.269     278.117     216.209
  C      -30.685     280.473     215.965
  O      -29.592     281.116     216.637
  C      -30.229     279.889     214.638
  O      -29.465     280.815     213.866
  C      -29.480     278.644     215.126
  N      -29.279     277.665     214.072
  C      -28.089     277.736     213.340
  O      -27.307     278.674     213.533
  N      -27.829     276.772     212.398
  C      -28.747     275.907     212.106
  N      -28.451     274.952     211.176
  C      -30.089     275.906     212.725
  C      -30.277     276.785     213.709
  O      -35.619     278.745     216.145
  O      -34.820     278.037     213.824
  H      -28.623     280.997     214.335
  H      -35.440     278.764     213.613
  H      -30.851     275.215     212.389
  H      -31.216     276.864     214.228
  H      -28.496     278.918     215.542
  H      -31.108     279.604     214.043
  H      -31.515     281.180     215.876
  H      -30.700     279.343     217.810
  H      -27.535     274.977     210.744
  H      -32.685     277.941     217.349
  H      -29.095     274.207     210.931
  H      -33.100     279.644     217.349
  P      -29.766     282.636     217.123
  C      -31.427     283.071     219.077
  O      -30.154     282.615     218.682
  O      -31.164     283.036     216.443
  O      -28.693     283.592     216.703
  H      -31.193     284.012     216.323
  H      -31.621     282.729     220.101
  H      -32.214     282.685     218.433
  H      -31.449     284.173     219.065
  H      -34.341     274.988     217.148
  H      -35.445     276.301     217.478
  H      -33.726     276.530     217.693

 3  4  5  6  7  8  9  10  11  12  13  23  27  28  29  30  32 0
 6-311+G(2d,p)
 ****
 34  35 0
 6-311+G(2d,p)
 ****
 1  2  14  15  16  17  18  19  20  21  22  24  25  26 0
 3-21G
 ****
 31  33  36  37  38  39  40  41  42  43  44  45  46 0
 3-21G
 ****


