%nproc=1
%NoSave
%Mem=1900MB
#P OB98/GEN NMR

erre ene a

0 1
  C      211.336     230.767      26.116
  O      212.210     229.676      26.409
  P      213.678     229.654      25.769
  C      213.688     227.262      24.808
  O      214.228     228.146      25.778
  C      214.474     225.939      24.770
  O      215.580     226.052      23.832
  C      215.052     225.544      26.138
  O      214.738     224.204      26.512
  C      216.529     225.868      26.003
  O      217.343     225.128      26.902
  C      216.789     225.659      24.507
  N      217.956     226.413      24.041
  C      219.202     225.945      24.435
  O      219.351     224.995      25.203
  N      220.282     226.644      23.970
  C      220.234     227.787      23.228
  O      221.230     228.405      22.876
  C      218.884     228.274      22.894
  C      217.826     227.576      23.310
  O      214.631     230.676      26.292
  O      213.390     229.900      24.206
  H      218.234     225.544      26.925
  H      214.095     230.479      23.858
  H      221.195     226.304      24.233
  H      218.808     229.191      22.328
  H      216.823     227.916      23.090
  H      216.975     224.602      24.286
  H      216.672     226.930      26.239
  H      214.622     226.152      26.941
  H      213.791     225.165      24.407
  H      213.735     227.727      23.824
  H      212.627     227.094      25.019
  P      213.613     223.801      27.576
  C      214.970     222.326      29.220
  O      213.996     222.375      28.197
  O      212.201     223.922      27.105
  O      213.882     224.814      28.788
  H      213.026     225.118      29.144
  H      215.375     221.312      29.266
  H      214.501     222.562      30.178
  H      215.787     223.024      29.027
  H      210.404     230.623      26.621
  H      211.166     230.814      25.061
  H      211.783     231.681      26.447

 3  4  5  6  7  8  9  10  11  12  13  23  28  29  30  31  32 0
 6-311+G(2d,p)
 ****
 33  34 0
 6-311+G(2d,p)
 ****
 1  2  14  15  16  17  18  19  20  21  22  24  25  26  27 0
 3-21G
 ****
 35  36  37  38  39  40  41  42  43  44  45 0
 3-21G
 ****


