%nproc=1
%NoSave
%Mem=1900MB
#P OB98/GEN NMR

erre ene a

0 1
  C     -195.988    -197.674    -110.577
  O     -196.216    -196.671    -111.571
  P     -195.068    -196.422    -112.667
  C     -192.919    -194.964    -112.889
  O     -193.995    -195.389    -112.065
  C     -192.095    -193.879    -112.187
  O     -192.777    -192.606    -112.191
  C     -191.809    -194.178    -110.722
  O     -190.699    -195.059    -110.577
  C     -191.456    -192.792    -110.200
  O     -190.095    -192.469    -110.546
  C     -192.431    -191.896    -110.979
  N     -194.951    -188.277    -108.355
  C     -193.727    -188.289    -108.932
  N     -193.118    -189.295    -109.598
  C     -193.910    -190.376    -109.652
  C     -195.185    -190.517    -109.111
  C     -195.709    -189.406    -108.433
  N     -196.957    -189.399    -107.853
  N     -195.685    -191.780    -109.360
  C     -194.740    -192.387    -110.052
  N     -193.648    -191.580    -110.245
  O     -195.819    -195.557    -113.786
  O     -194.493    -197.681    -113.238
  H     -189.972    -191.520    -110.354
  H     -195.472    -195.786    -114.669
  H     -193.157    -187.362    -108.851
  H     -194.804    -193.395    -110.435
  H     -191.968    -190.938    -111.274
  H     -191.533    -192.723    -109.108
  H     -192.711    -194.558    -110.216
  H     -191.148    -193.762    -112.731
  H     -193.303    -194.586    -113.841
  H     -197.274    -188.548    -107.410
  H     -197.531    -190.223    -107.928
  H     -192.293    -195.832    -113.135
  P     -191.017    -196.568    -110.121
  C     -190.873    -197.727    -107.798
  O     -191.089    -196.531    -108.520
  O     -189.646    -197.329    -110.440
  O     -192.187    -197.193    -110.815
  H     -189.823    -198.265    -110.658
  H     -190.652    -197.476    -106.756
  H     -190.034    -198.294    -108.208
  H     -191.780    -198.342    -107.828
  H     -196.833    -197.726    -109.922
  H     -195.114    -197.425    -110.013
  H     -195.847    -198.622    -111.053

 3  4  5  6  7  8  9  10  11  12  22  25  29  30  31  32 0
 6-311+G(2d,p)
 ****
 33  36  37 0
 6-311+G(2d,p)
 ****
 1  2  13  14  15  16  17  18  19  20  21  23  24  26 0
 3-21G
 ****
 27  28  34  35  38  39  40  41  42  43  44  45  46  47  48 0
 3-21G
 ****


