%nproc=1
%NoSave
%Mem=1900MB
#P OB98/GEN NMR

erre ene a

0 1
  C      266.229    -660.620     481.354
  O      267.544    -661.130     481.214
  H      265.517    -661.450     481.376
  H      266.165    -660.076     482.299
  H      265.989    -659.939     480.539
  P      267.957    -661.701     479.774
  C      268.845    -663.911     480.807
  O      269.139    -662.761     480.028
  C      270.095    -664.771     480.987
  O      270.495    -665.283     479.681
  C      271.299    -664.023     481.589
  O      271.977    -664.909     482.484
  C      272.180    -663.760     480.385
  O      273.557    -663.608     480.733
  C      271.899    -664.994     479.531
  N      275.605    -663.344     476.467
  C      275.612    -663.743     477.755
  N      274.587    -664.226     478.482
  C      273.480    -664.332     477.729
  C      273.319    -663.973     476.406
  C      274.451    -663.435     475.766
  N      274.436    -662.959     474.473
  N      272.011    -664.180     475.997
  C      271.394    -664.638     477.070
  N      272.236    -664.744     478.142
  O      268.712    -660.449     479.111
  O      266.830    -662.189     478.923
  H      274.096    -663.692     479.922
  H      268.062    -659.880     478.658
  H      276.564    -663.663     478.271
  H      270.338    -664.870     477.131
  H      272.467    -665.873     479.854
  H      271.850    -662.847     479.878
  H      271.024    -663.104     482.119
  H      269.832    -665.637     481.602
  H      268.076    -664.499     480.295
  H      275.268    -662.494     474.138
  H      273.557    -662.916     473.978
  H      268.451    -663.601     481.783
  P      271.283    -665.212     483.896
  C      271.808    -662.909     484.996
  O      271.997    -664.316     485.016
  O      271.766    -666.699     484.240
  O      269.786    -665.115     483.869
  H      271.080    -667.175     484.730
  H      272.349    -662.465     485.805
  H      270.766    -662.688     485.099
  H      272.166    -662.514     484.068

 6  7  8  9  10  11  12  13  14  15  25  28  32  33  34  35 0
 6-311+G(2d,p)
 ****
 36  39  40 0
 6-311+G(2d,p)
 ****
 1  2  3  4  5  16  17  18  19  20  21  22  23  24 0
 3-21G
 ****
 26  27  29  30  31  37  38  41  42  43  44  45  46  47 0
 3-21G
 ****
 48 0
 3-21G
 ****


