%nproc=1
%NoSave
%Mem=1900MB
#P OB98/GEN NMR

erre ene a

0 1
  C      103.158     218.354    -159.437
  O      101.787     218.684    -159.163
  P      101.104     219.908    -159.933
  C      101.160     222.499    -159.869
  O      101.457     221.280    -159.189
  C      100.619     223.530    -158.880
  O       99.293     223.182    -158.403
  C      101.473     223.649    -157.621
  O      102.759     224.216    -157.757
  C      100.514     224.315    -156.650
  O      100.503     225.735    -156.814
  C       99.156     223.707    -157.067
  N       98.689     222.672    -156.139
  C       98.125     223.128    -154.949
  O       98.048     224.319    -154.655
  N       97.671     222.154    -154.092
  C       97.768     220.803    -154.295
  O       97.365     219.979    -153.479
  C       98.400     220.381    -155.552
  C       98.822     221.317    -156.408
  O       99.659     219.723    -160.280
  O      101.988     220.011    -161.281
  H       99.857     226.095    -156.185
  H      101.372     220.181    -162.024
  H       97.249     222.464    -153.234
  H       98.496     219.324    -155.744
  H       99.288     221.033    -157.349
  H       98.386     224.486    -157.110
  H      100.793     224.128    -155.605
  H      101.639     222.624    -157.239
  H      100.540     224.501    -159.394
  H      100.419     222.304    -160.658
  H      102.063     222.855    -160.376
  P      104.106     223.355    -157.655
  C      105.607     222.472    -155.720
  O      104.635     223.413    -156.139
  O      105.123     223.539    -158.738
  O      103.542     221.853    -157.747
  H      104.203     221.296    -158.193
  H      105.830     222.652    -154.669
  H      106.525     222.594    -156.309
  H      105.221     221.452    -155.832
  H      103.450     217.516    -158.839
  H      103.780     219.193    -159.204
  H      103.265     218.107    -160.473

 3  4  5  6  7  8  9  10  11  12  13  23  28  29  30  31  32 0
 6-311+G(2d,p)
 ****
 33  34 0
 6-311+G(2d,p)
 ****
 1  2  14  15  16  17  18  19  20  21  22  24  25  26  27 0
 3-21G
 ****
 35  36  37  38  39  40  41  42  43  44  45 0
 3-21G
 ****


