%nproc=1
%NoSave
%Mem=1900MB
#P OB98/GEN NMR

erre ene a

0 1
  C      730.307     196.505     267.811
  O      730.656     197.064     269.061
  H      729.225     196.337     267.771
  H      730.585     197.202     267.018
  H      730.828     195.562     267.654
  P      730.308     196.190     270.358
  C      728.642     197.788     271.531
  O      729.948     197.228     271.536
  C      728.306     198.354     272.909
  O      727.830     197.250     273.737
  C      729.496     199.002     273.634
  O      729.128     200.307     274.120
  C      729.757     198.101     274.820
  O      730.195     198.814     275.978
  C      728.399     197.435     275.038
  N      726.797     194.730     279.064
  C      726.252     195.780     278.429
  N      726.682     196.395     277.302
  C      727.774     195.796     276.810
  C      728.440     194.694     277.340
  C      727.920     194.165     278.539
  N      728.509     193.128     279.226
  N      729.540     194.365     276.578
  C      729.569     195.269     275.617
  N      728.536     196.169     275.728
  O      731.734     195.599     270.800
  O      729.317     195.100     270.122
  H      729.461     199.394     276.255
  H      731.701     194.624     270.759
  H      725.362     196.193     278.879
  H      730.329     195.357     274.850
  H      727.719     198.075     275.615
  H      730.525     197.365     274.544
  H      730.380     199.095     272.994
  H      727.472     199.057     272.812
  H      727.911     197.012     271.269
  H      728.135     192.893     280.128
  H      729.399     192.781     278.896
  H      728.593     198.581     270.776
  P      729.559     201.561     273.207
  C      731.875     202.210     274.185
  O      730.488     202.532     274.091
  O      728.189     202.375     273.038
  O      730.115     201.168     271.874
  H      727.983     202.494     272.096
  H      732.368     202.934     274.799
  H      732.310     202.216     273.207
  H      731.987     201.239     274.619

 6  7  8  9  10  11  12  13  14  15  25  28  32  33  34  35 0
 6-311+G(2d,p)
 ****
 36  39  40 0
 6-311+G(2d,p)
 ****
 1  2  3  4  5  16  17  18  19  20  21  22  23  24 0
 3-21G
 ****
 26  27  29  30  31  37  38  41  42  43  44  45  46  47  48 0
 3-21G
 ****


