%nproc=1
%NoSave
%Mem=1900MB
#P OB98/GEN NMR

erre ene a

0 1
  C      163.672    -109.108     137.704
  O      162.576    -109.983     137.553
  H      164.036    -108.825     136.713
  H      164.480    -109.611     138.241
  H      163.373    -108.204     138.242
  P      161.779    -110.405     138.880
  C      159.835    -109.235     140.141
  O      160.415    -109.557     138.886
  C      158.859    -108.067     139.993
  O      159.613    -106.864     139.690
  C      157.825    -108.266     138.883
  O      156.574    -107.730     139.322
  C      158.360    -107.427     137.738
  O      157.336    -107.005     136.838
  C      159.064    -106.290     138.489
  N      160.094    -105.662     137.667
  C      160.048    -104.269     137.558
  O      159.163    -103.632     138.131
  N      160.965    -103.636     136.759
  C      161.801    -104.339     136.060
  N      162.666    -103.655     135.262
  C      161.841    -105.814     136.091
  C      160.975    -106.403     136.913
  O      162.631    -109.735     140.054
  O      161.595    -111.873     139.076
  H      156.892    -107.805     136.480
  H      162.591    -110.268     140.870
  H      162.539    -106.356     135.471
  H      160.926    -107.482     136.998
  H      158.339    -105.521     138.792
  H      159.091    -108.011     137.165
  H      157.693    -109.314     138.600
  H      158.368    -107.900     140.959
  H      162.594    -102.645     135.255
  H      160.629    -108.948     140.837
  H      163.327    -104.098     134.643
  H      159.318    -110.115     140.539
  P      155.378    -108.776     139.539
  C      155.645    -111.050     140.765
  O      155.696    -109.633     140.857
  O      155.581    -109.822     138.347
  O      154.022    -108.151     139.501
  H      154.880    -109.706     137.679
  H      155.879    -111.478     141.718
  H      156.356    -111.386     140.039
  H      154.662    -111.353     140.469

 6  7  8  9  10  11  12  13  14  15  16  26  30  31  32  33  35 0
 6-311+G(2d,p)
 ****
 37  38 0
 6-311+G(2d,p)
 ****
 1  2  3  4  5  17  18  19  20  21  22  23  24  25 0
 3-21G
 ****
 27  28  29  34  36  39  40  41  42  43  44  45  46 0
 3-21G
 ****


