%nproc=1
%NoSave
%Mem=1900MB
#P OB98/GEN NMR

erre ene a

0 1
  C       12.757    -302.856    -369.028
  O       13.335    -301.929    -368.121
  H       12.084    -303.513    -368.474
  H       13.538    -303.458    -369.498
  H       12.184    -302.323    -369.791
  P       14.388    -300.885    -368.732
  C       15.841    -301.492    -366.671
  O       15.297    -300.452    -367.476
  C       17.203    -301.073    -366.108
  O       18.164    -300.925    -367.174
  C       17.180    -299.743    -365.357
  O       16.758    -299.947    -364.016
  C       18.655    -299.367    -365.414
  O       19.387    -300.079    -364.395
  C       19.081    -299.858    -366.805
  N       21.149    -295.456    -368.447
  C       21.246    -296.098    -367.270
  N       20.626    -297.237    -366.878
  C       19.845    -297.719    -367.868
  C       19.652    -297.164    -369.125
  C       20.351    -295.979    -369.409
  N       20.248    -295.313    -370.618
  N       18.775    -297.929    -369.876
  C       18.495    -298.960    -369.093
  N       19.083    -298.862    -367.859
  O       13.804    -299.773    -369.543
  O       15.360    -301.872    -369.543
  H       20.294    -299.711    -364.395
  H       15.523    -302.684    -369.027
  H       21.905    -295.652    -366.536
  H       17.886    -299.814    -369.392
  H       20.094    -300.300    -366.791
  H       18.824    -298.298    -365.236
  H       16.596    -298.990    -365.881
  H       17.560    -301.884    -365.461
  H       15.949    -302.409    -367.267
  H       20.629    -294.386    -370.667
  H       19.550    -295.644    -371.283
  H       15.129    -301.693    -365.862
  P       15.305    -299.458    -363.533
  C       16.374    -297.811    -361.878
  O       15.523    -298.933    -362.022
  O       14.218    -300.466    -363.721
  O       15.052    -298.107    -364.341
  H       14.094    -297.883    -364.324
  H       16.447    -297.549    -360.843
  H       15.972    -296.985    -362.427
  H       17.346    -298.050    -362.255

 6  7  8  9  10  11  12  13  14  15  25  28  32  33  34  35 0
 6-311+G(2d,p)
 ****
 36  39  40 0
 6-311+G(2d,p)
 ****
 1  2  3  4  5  16  17  18  19  20  21  22  23  24 0
 3-21G
 ****
 26  27  29  30  31  37  38  41  42  43  44  45  46  47 0
 3-21G
 ****
 48 0
 3-21G
 ****


