%nproc=1
%NoSave
%Mem=1900MB
#P OB98/GEN NMR

erre ene a

0 1
  C     -974.387    -703.745    -308.854
  O     -974.298    -702.533    -308.133
  P     -975.675    -701.871    -307.625
  C     -975.561    -701.707    -305.034
  O     -975.965    -702.477    -306.167
  C     -975.817    -702.465    -303.734
  O     -977.215    -702.838    -303.672
  C     -974.986    -703.742    -303.578
  O     -974.626    -703.866    -302.201
  C     -975.962    -704.843    -303.929
  O     -975.586    -706.091    -303.341
  C     -977.283    -704.256    -303.423
  N     -978.439    -704.860    -304.074
  C     -978.620    -706.238    -303.889
  O     -977.784    -706.888    -303.273
  N     -979.723    -706.841    -304.446
  C     -980.507    -706.153    -305.216
  N     -981.586    -706.796    -305.749
  C     -980.281    -704.728    -305.535
  C     -979.258    -704.144    -304.918
  O     -976.773    -702.578    -308.550
  O     -975.724    -700.376    -307.738
  H     -974.620    -706.216    -303.503
  H     -977.522    -701.979    -308.725
  H     -980.951    -704.208    -306.212
  H     -979.030    -703.103    -305.071
  H     -977.377    -704.398    -302.337
  H     -975.993    -704.980    -305.019
  H     -974.082    -703.735    -304.193
  H     -975.628    -701.785    -302.896
  H     -981.707    -707.774    -305.524
  H     -976.142    -700.781    -305.013
  H     -982.256    -706.344    -306.357
  H     -974.502    -701.450    -305.139
  P     -973.366    -704.786    -301.839
  C     -972.083    -703.076    -300.406
  O     -972.146    -703.762    -301.641
  O     -973.017    -705.430    -303.265
  O     -973.536    -705.847    -300.796
  H     -972.292    -706.069    -303.171
  H     -971.147    -702.526    -300.362
  H     -972.131    -703.777    -299.579
  H     -972.919    -702.365    -300.343
  H     -973.405    -704.070    -309.128
  H     -974.972    -703.593    -309.737
  H     -974.852    -704.490    -308.243

 3  4  5  6  7  8  9  10  11  12  13  21  23  27  28  29  30  32 0
 6-311+G(2d,p)
 ****
 34  35 0
 6-311+G(2d,p)
 ****
 1  2  14  15  16  17  18  19  20  22  24  25  26 0
 3-21G
 ****
 31  33  36  37  38  39  40  41  42  43  44  45  46 0
 3-21G
 ****


