%nproc=1
%NoSave
%Mem=1900MB
#P OB98/GEN NMR

erre ene a

0 1
  C     -283.416     249.134     485.358
  O     -284.525     249.993     485.521
  H     -283.592     248.490     484.491
  H     -283.282     248.501     486.240
  H     -282.509     249.724     485.180
  P     -284.599     250.931     486.818
  C     -286.612     249.678     487.814
  O     -286.126     250.916     487.311
  C     -287.876     249.890     488.657
  O     -287.548     250.770     489.768
  C     -289.031     250.532     487.878
  O     -290.261     249.949     488.327
  C     -288.949     251.987     488.291
  O     -290.191     252.652     488.131
  C     -288.448     251.891     489.736
  N     -287.799     253.124     490.161
  C     -288.573     254.295     490.095
  O     -289.744     254.242     489.703
  N     -287.994     255.498     490.394
  C     -286.726     255.546     490.687
  N     -286.199     256.777     490.941
  C     -285.864     254.350     490.744
  C     -286.458     253.188     490.479
  O     -284.002     252.293     486.674
  O     -283.842     250.073     487.946
  H     -290.848     252.258     488.759
  H     -282.888     250.297     487.955
  H     -284.813     254.445     490.986
  H     -285.903     252.250     490.482
  H     -289.281     251.674     490.424
  H     -288.212     252.507     487.669
  H     -288.939     250.406     486.790
  H     -288.177     248.930     489.088
  H     -286.828     257.582     490.859
  H     -285.822     249.232     488.440
  H     -285.225     256.951     491.134
  H     -286.831     248.995     486.988
  P     -291.116     248.991     487.359
  C     -293.206     250.358     487.888
  O     -292.663     249.047     487.802
  O     -290.565     247.605     487.204
  O     -291.103     249.767     485.950
  H     -291.153     249.115     485.229
  H     -294.232     250.300     488.187
  H     -293.139     250.835     486.933
  H     -292.656     250.925     488.609

 6  7  8  9  10  11  12  13  14  15  16  26  30  31  32  33  35 0
 6-311+G(2d,p)
 ****
 37  38 0
 6-311+G(2d,p)
 ****
 1  2  3  4  5  17  18  19  20  21  22  23  24  25 0
 3-21G
 ****
 27  28  29  34  36  39  40  41  42  43  44  45  46 0
 3-21G
 ****


