%nproc=1
%NoSave
%Mem=1900MB
#P OB98/GEN NMR

erre ene a

0 1
  C       59.285    -241.280    -537.596
  O       60.244    -241.909    -536.760
  H       58.707    -240.576    -536.987
  H       58.600    -242.021    -538.007
  H       59.777    -240.732    -538.402
  P       61.292    -242.924    -537.424
  C       63.370    -241.443    -537.078
  O       62.487    -242.027    -538.027
  C       64.723    -242.145    -537.114
  O       65.281    -242.025    -538.447
  C       65.751    -241.551    -536.130
  O       66.531    -242.620    -535.586
  C       66.621    -240.673    -537.010
  O       67.934    -240.508    -536.475
  C       66.591    -241.436    -538.340
  N       70.178    -239.830    -541.518
  C       70.226    -240.801    -540.528
  N       71.417    -241.415    -540.342
  N       69.200    -241.129    -539.792
  C       68.077    -240.441    -540.100
  C       67.900    -239.462    -541.049
  C       69.041    -239.094    -541.845
  O       69.056    -238.238    -542.730
  N       66.601    -238.981    -541.032
  C       66.006    -239.671    -540.078
  N       66.858    -240.560    -539.476
  O       60.714    -243.912    -538.385
  O       61.974    -243.652    -536.167
  H       68.301    -241.415    -536.319
  H       61.582    -244.527    -536.021
  H       71.000    -239.612    -542.049
  H       64.977    -239.567    -539.776
  H       67.342    -242.235    -538.368
  H       66.169    -239.680    -537.113
  H       72.243    -241.225    -540.889
  H       65.283    -240.986    -535.318
  H       71.473    -242.147    -539.639
  H       64.578    -243.210    -536.922
  H       62.921    -241.546    -536.079
  H       63.490    -240.376    -537.302
  P       66.128    -243.223    -534.159
  C       64.986    -245.377    -534.969
  O       64.809    -244.113    -534.337
  O       66.091    -242.240    -533.031
  O       67.267    -244.328    -533.905
  H       67.420    -244.408    -532.940
  H       64.043    -245.879    -535.033
  H       65.668    -245.970    -534.396
  H       65.380    -245.232    -535.953

 6  7  8  9  10  11  12  13  14  15  26  29  33  34 0
 6-311+G(2d,p)
 ****
 36  38  39  40  41 0
 6-311+G(2d,p)
 ****
 1  2  3  4  5  16  17  18  19  20  21  22  23  24  25 0
 3-21G
 ****
 27  28  30  31  32  35  37  42  43  44  45  46  47 0
 3-21G
 ****
 48  49 0
 3-21G
 ****


