%nproc=1
%NoSave
%Mem=1900MB
#P OB98/GEN NMR

erre ene a

0 1
  C      345.364     205.124    -297.538
  O      344.551     205.137    -298.713
  P      343.031     205.629    -298.593
  C      343.312     208.004    -297.623
  O      343.003     207.225    -298.775
  C      342.139     208.906    -297.248
  O      342.266     209.415    -295.905
  C      342.023     210.137    -298.135
  O      341.510     209.795    -299.413
  C      341.125     211.030    -297.290
  O      339.744     210.679    -297.459
  C      341.586     210.690    -295.857
  N      342.425     211.718    -295.261
  C      341.762     212.875    -294.831
  O      340.549     212.997    -294.997
  N      342.501     213.869    -294.231
  C      343.781     213.725    -294.091
  N      344.461     214.739    -293.487
  C      344.517     212.528    -294.540
  C      343.785     211.577    -295.118
  O      342.275     205.112    -297.415
  O      342.383     205.115    -299.971
  H      339.230     211.365    -296.984
  H      341.434     204.925    -299.821
  H      345.584     212.450    -294.391
  H      344.245     210.666    -295.483
  H      340.714     210.549    -295.202
  H      341.228     212.084    -297.565
  H      343.010     210.608    -298.249
  H      341.215     208.314    -297.310
  H      343.936     215.555    -293.197
  H      344.204     208.606    -297.819
  H      345.450     214.701    -293.284
  H      343.566     207.324    -296.802
  P      342.333     210.277    -300.700
  C      342.952     207.902    -301.540
  O      342.257     209.108    -301.792
  O      343.855     210.210    -300.195
  O      341.987     211.644    -301.190
  H      344.371     210.921    -300.621
  H      342.548     207.125    -302.200
  H      342.826     207.579    -300.503
  H      344.011     208.035    -301.758
  H      346.344     204.772    -297.786
  H      344.926     204.475    -296.809
  H      345.431     206.115    -297.140

 3  4  5  6  7  8  9  10  11  12  13  23  27  28  29  30  32 0
 6-311+G(2d,p)
 ****
 34  35 0
 6-311+G(2d,p)
 ****
 1  2  14  15  16  17  18  19  20  21  22  24  25  26 0
 3-21G
 ****
 31  33  36  37  38  39  40  41  42  43  44  45  46 0
 3-21G
 ****


