%nproc=1
%NoSave
%Mem=1900MB
#P OB98/GEN NMR

erre ene a

0 1
  C     -591.888      20.715     146.326
  O     -592.915      21.002     147.253
  P     -592.650      21.701     148.665
  C     -592.377      19.507     150.027
  O     -591.770      20.705     149.571
  C     -591.395      18.572     150.747
  O     -590.359      18.165     149.828
  C     -590.700      19.315     151.895
  O     -591.330      19.431     153.147
  C     -589.280      18.745     151.926
  O     -589.122      17.739     152.928
  C     -589.106      18.144     150.528
  N     -584.157      18.993     149.792
  C     -584.767      18.010     150.540
  N     -583.949      17.282     151.338
  N     -586.052      17.771     150.528
  C     -586.748      18.647     149.753
  C     -586.250      19.661     148.958
  C     -584.821      19.873     148.959
  O     -584.251      20.795     148.373
  N     -587.253      20.393     148.375
  C     -588.370      19.849     148.846
  N     -588.105      18.816     149.719
  O     -593.821      22.395     149.301
  O     -591.588      22.841     148.267
  H     -589.793      17.036     152.761
  H     -591.752      23.619     148.828
  H     -583.163      19.176     149.911
  H     -589.370      20.191     148.615
  H     -588.806      17.091     150.595
  H     -588.554      19.533     152.164
  H     -582.981      17.522     151.480
  H     -590.563      20.356     151.558
  H     -584.387      16.664     152.021
  H     -591.891      17.645     151.060
  H     -592.820      19.007     149.161
  H     -593.202      19.753     150.709
  P     -591.240      20.690     154.141
  C     -589.375      19.580     155.491
  O     -589.773      20.739     154.777
  O     -592.158      20.263     155.388
  O     -591.724      21.980     153.562
  H     -592.457      21.066     155.861
  H     -588.520      19.833     156.123
  H     -589.082      18.797     154.786
  H     -590.181      19.208     156.125
  H     -592.309      20.249     145.460
  H     -591.176      20.055     146.775
  H     -591.401      21.624     146.041

 3  4  5  6  7  8  9  10  11  12  23  26  30  31 0
 6-311+G(2d,p)
 ****
 33  35  36  37  38 0
 6-311+G(2d,p)
 ****
 1  2  13  14  15  16  17  18  19  20  21  22  24  25 0
 3-21G
 ****
 27  28  29  32  34  39  40  41  42  43  44  45  46  47  48  49 0
 3-21G
 ****


