%nproc=1
%NoSave
%Mem=1900MB
#P OB98/GEN NMR

erre ene a

0 1
  C      -67.505     291.788    -198.926
  O      -66.676     292.349    -199.922
  H      -67.024     290.884    -198.539
  H      -68.471     291.513    -199.362
  H      -67.660     292.486    -198.101
  P      -66.973     293.838    -200.429
  C      -65.336     295.773    -200.914
  O      -65.622     294.394    -201.089
  C      -63.861     296.068    -201.212
  O      -63.062     295.661    -200.070
  C      -63.356     295.264    -202.416
  O      -62.291     295.919    -203.097
  C      -62.825     293.989    -201.772
  O      -61.863     293.316    -202.578
  C      -62.262     294.534    -200.458
  N      -60.287     290.160    -198.727
  C      -60.176     290.734    -199.978
  N      -59.437     290.054    -200.888
  N      -60.751     291.858    -200.315
  C      -61.516     292.390    -199.331
  C      -61.725     291.904    -198.061
  C      -61.054     290.676    -197.684
  O      -61.139     290.116    -196.602
  N      -62.573     292.718    -197.347
  C      -62.880     293.686    -198.182
  N      -62.246     293.548    -199.392
  O      -67.069     294.686    -199.069
  O      -68.207     294.002    -201.264
  H      -61.523     292.561    -202.065
  H      -67.580     295.503    -199.215
  H      -59.800     289.306    -198.509
  H      -63.539     294.512    -197.961
  H      -61.228     294.888    -200.600
  H      -63.665     293.304    -201.623
  H      -59.146     289.098    -200.726
  H      -64.148     295.033    -203.132
  H      -59.597     290.288    -201.871
  H      -63.710     297.148    -201.341
  H      -65.580     296.025    -199.878
  H      -65.984     296.378    -201.552
  P      -62.524     296.397    -204.609
  C      -61.468     298.293    -206.120
  O      -61.344     297.374    -205.061
  O      -63.801     297.349    -204.517
  O      -62.728     295.271    -205.585
  H      -64.548     296.967    -205.015
  H      -60.551     298.833    -206.233
  H      -62.261     298.979    -205.906
  H      -61.686     297.766    -207.026

 6  7  8  9  10  11  12  13  14  15  26  29  33  34 0
 6-311+G(2d,p)
 ****
 36  38  39  40  41 0
 6-311+G(2d,p)
 ****
 1  2  3  4  5  16  17  18  19  20  21  22  23  24  25 0
 3-21G
 ****
 27  28  30  31  32  35  37  42  43  44  45  46  47 0
 3-21G
 ****
 48  49 0
 3-21G
 ****


