%nproc=1
%NoSave
%Mem=1900MB
#P OB98/GEN NMR

erre ene a

0 1
  C      299.724    -666.484      26.300
  O      298.722    -666.100      25.377
  H      300.303    -665.595      26.571
  H      300.396    -667.211      25.843
  H      299.274    -666.900      27.205
  P      297.662    -667.196      24.886
  C      295.143    -667.162      24.356
  O      296.335    -666.398      24.453
  C      293.940    -666.257      24.138
  O      293.794    -665.391      25.296
  C      294.048    -665.369      22.894
  O      292.751    -665.260      22.299
  C      294.461    -664.018      23.459
  O      294.059    -662.936      22.629
  C      293.775    -664.025      24.828
  N      293.413    -659.645      27.308
  C      292.503    -660.276      26.483
  N      291.324    -659.648      26.267
  N      292.719    -661.441      25.915
  C      293.935    -661.966      26.237
  C      294.917    -661.432      27.036
  C      294.663    -660.146      27.640
  O      295.431    -659.528      28.370
  N      296.018    -662.261      27.083
  C      295.695    -663.285      26.317
  N      294.443    -663.149      25.771
  O      297.416    -668.329      25.837
  O      298.250    -667.716      23.491
  H      294.233    -663.204      21.703
  H      298.713    -668.569      23.608
  H      293.185    -658.744      27.710
  H      296.327    -664.143      26.121
  H      292.727    -663.694      24.773
  H      295.553    -663.985      23.567
  H      291.085    -658.759      26.682
  H      294.769    -665.750      22.161
  H      290.632    -660.109      25.684
  H      293.037    -666.877      24.102
  H      295.018    -667.728      25.284
  H      295.236    -667.871      23.521
  P      292.462    -666.061      20.939
  C      290.400    -666.718      19.538
  O      290.912    -665.878      20.569
  O      292.965    -667.463      20.897
  O      293.182    -665.154      19.831
  H      293.488    -665.737      19.095
  H      289.363    -666.503      19.384
  H      290.513    -667.743      19.824
  H      290.940    -666.539      18.631

 6  7  8  9  10  11  12  13  14  15  26  29  33  34 0
 6-311+G(2d,p)
 ****
 36  38  39  40  41 0
 6-311+G(2d,p)
 ****
 1  2  3  4  5  16  17  18  19  20  21  22  23  24  25 0
 3-21G
 ****
 27  28  30  31  32  35  37  42  43  44  45  46  47 0
 3-21G
 ****
 48  49 0
 3-21G
 ****


