%nproc=1
%NoSave
%Mem=1900MB
#P OB98/GEN NMR

erre ene a

0 1
  C       58.083    -340.157     -11.353
  O       58.869    -339.181     -12.006
  H       58.551    -341.139     -11.455
  H       58.023    -339.909     -10.289
  H       57.068    -340.183     -11.764
  P       58.846    -339.174     -13.609
  C       60.930    -340.704     -13.362
  O       59.737    -340.427     -14.080
  C       61.361    -342.159     -13.580
  O       61.389    -342.419     -15.015
  C       62.754    -342.493     -13.016
  O       62.711    -343.812     -12.465
  C       63.635    -342.504     -14.257
  O       64.791    -343.320     -14.102
  C       62.659    -343.018     -15.313
  N       66.085    -344.123     -18.905
  C       65.685    -344.796     -17.802
  N       64.719    -344.452     -16.924
  C       64.104    -343.317     -17.310
  C       64.399    -342.524     -18.410
  C       65.461    -342.965     -19.222
  N       65.925    -342.251     -20.308
  N       63.584    -341.409     -18.435
  C       62.829    -341.518     -17.355
  N       63.110    -342.654     -16.645
  O       59.765    -337.908     -13.963
  O       57.496    -339.074     -14.232
  H       64.510    -344.246     -13.953
  H       59.217    -337.099     -13.982
  H       66.211    -345.724     -17.598
  H       62.094    -340.796     -17.031
  H       62.545    -344.105     -15.290
  H       63.960    -341.479     -14.484
  H       63.107    -341.785     -12.261
  H       60.603    -342.814     -13.148
  H       60.746    -340.547     -12.293
  H       66.757    -342.587     -20.765
  H       65.542    -341.338     -20.491
  H       61.717    -340.023     -13.692
  P       62.698    -343.945     -10.867
  C       65.204    -344.644     -10.680
  O       64.190    -343.708     -10.324
  O       62.464    -345.513     -10.628
  O       61.644    -343.118     -10.196
  H       61.945    -345.661      -9.811
  H       66.134    -344.346     -10.242
  H       65.304    -344.673     -11.745
  H       64.935    -345.615     -10.320

 6  7  8  9  10  11  12  13  14  15  25  28  32  33  34  35 0
 6-311+G(2d,p)
 ****
 36  39  40 0
 6-311+G(2d,p)
 ****
 1  2  3  4  5  16  17  18  19  20  21  22  23  24 0
 3-21G
 ****
 26  27  29  30  31  37  38  41  42  43  44  45  46  47 0
 3-21G
 ****
 48 0
 3-21G
 ****


