%nproc=1
%NoSave
%Mem=1900MB
#P OB98/GEN NMR

erre ene a

0 1
  C      202.780    -303.287     236.873
  O      202.733    -303.478     238.273
  H      203.813    -303.083     236.583
  H      202.158    -302.437     236.578
  H      202.442    -304.190     236.356
  P      201.299    -303.680     238.968
  C      201.105    -301.349     240.083
  O      201.356    -302.734     240.270
  C      202.004    -300.524     241.008
  O      201.799    -299.109     240.800
  C      201.765    -300.736     242.499
  O      202.269    -301.975     242.980
  C      202.519    -299.539     243.062
  O      203.933    -299.797     243.015
  C      202.122    -298.433     242.048
  N      200.986    -297.627     242.503
  C      201.187    -296.860     243.659
  O      202.272    -296.880     244.242
  N      200.145    -296.113     244.148
  C      198.990    -296.141     243.550
  N      197.975    -295.422     244.101
  C      198.739    -296.923     242.319
  C      199.765    -297.639     241.862
  O      200.877    -305.092     239.223
  O      200.282    -302.871     238.029
  H      204.102    -300.578     243.573
  H      199.377    -302.975     238.411
  H      197.759    -296.923     241.864
  H      199.654    -298.252     240.967
  H      202.969    -297.770     241.848
  H      202.259    -299.318     244.102
  H      200.702    -300.628     242.741
  H      203.049    -300.739     240.728
  H      198.174    -294.935     244.964
  H      200.048    -301.157     240.294
  H      197.006    -295.608     243.868
  H      201.321    -301.060     239.048
  P      201.213    -303.075     243.478
  C      200.245    -301.665     245.449
  O      200.973    -302.814     245.043
  O      202.062    -304.428     243.442
  O      199.946    -303.170     242.678
  H      201.937    -304.902     242.595
  H      200.178    -301.644     246.517
  H      199.261    -301.700     245.031
  H      200.747    -300.785     245.106

 6  7  8  9  10  11  12  13  14  15  16  26  30  31  32  33  35 0
 6-311+G(2d,p)
 ****
 37  38 0
 6-311+G(2d,p)
 ****
 1  2  3  4  5  17  18  19  20  21  22  23  24  25 0
 3-21G
 ****
 27  28  29  34  36  39  40  41  42  43  44  45  46 0
 3-21G
 ****


