%nproc=1
%NoSave
%Mem=1900MB
#P OB98/GEN NMR

erre ene a

0 1
  C      129.373    -134.636     817.764
  O      130.170    -133.574     817.262
  P      129.498    -132.403     816.398
  C      129.242    -133.949     814.343
  O      129.809    -132.742     814.865
  C      128.662    -133.693     812.960
  O      127.414    -132.958     813.038
  C      129.553    -132.824     812.049
  O      130.798    -133.372     811.652
  C      128.576    -132.469     810.953
  O      128.417    -133.497     809.980
  C      127.267    -132.286     811.762
  N      126.893    -130.871     811.945
  C      125.551    -130.567     811.755
  O      124.696    -131.406     811.474
  N      125.213    -129.226     811.881
  C      126.079    -128.207     812.115
  O      125.730    -127.038     812.163
  C      127.498    -128.600     812.273
  C      127.848    -129.883     812.193
  O      129.866    -131.004     816.829
  O      127.925    -132.722     816.492
  H      127.622    -133.289     809.470
  H      127.654    -133.600     816.149
  H      124.252    -128.997     811.732
  H      128.197    -127.802     812.481
  H      128.870    -130.205     812.310
  H      126.408    -132.777     811.244
  H      128.896    -131.557     810.403
  H      129.793    -131.893     812.594
  H      128.431    -134.669     812.495
  H      128.456    -134.269     815.002
  H      130.009    -134.746     814.319
  P      132.186    -132.631     811.888
  C      131.786    -131.180     809.766
  O      132.689    -132.023     810.484
  O      133.219    -133.373     812.695
  O      131.727    -131.313     812.692
  H      132.450    -131.056     813.313
  H      132.253    -130.901     808.803
  H      131.563    -130.279     810.350
  H      130.867    -131.716     809.556
  H      129.990    -135.317     818.312
  H      128.910    -135.151     816.948
  H      128.618    -134.240     818.410

 3  4  5  6  7  8  9  10  11  12  13  23  28  29  30  31  32 0
 6-311+G(2d,p)
 ****
 33  34 0
 6-311+G(2d,p)
 ****
 1  2  14  15  16  17  18  19  20  21  22  24  25  26  27 0
 3-21G
 ****
 35  36  37  38  39  40  41  42  43  44  45 0
 3-21G
 ****


