%nproc=1
%NoSave
%Mem=1900MB
#P OB98/GEN NMR

erre ene a

0 1
  C     -223.898    -406.270    -583.256
  O     -223.451    -405.977    -584.588
  P     -222.338    -404.817    -584.717
  C     -223.652    -402.976    -586.006
  O     -223.101    -403.401    -584.763
  C     -224.302    -401.594    -585.858
  O     -225.470    -401.616    -585.029
  C     -223.367    -400.555    -585.240
  O     -222.470    -400.073    -586.221
  C     -224.356    -399.498    -584.761
  O     -224.721    -398.600    -585.834
  C     -225.574    -400.340    -584.344
  N     -226.241    -398.159    -579.804
  C     -226.013    -397.583    -581.041
  N     -226.003    -396.237    -581.087
  N     -225.837    -398.264    -582.143
  C     -225.879    -399.606    -581.960
  C     -226.122    -400.297    -580.781
  C     -226.310    -399.525    -579.575
  O     -226.536    -399.984    -578.460
  N     -226.153    -401.661    -580.999
  C     -225.819    -401.781    -582.269
  N     -225.700    -400.573    -582.913
  O     -221.785    -405.005    -586.206
  O     -221.247    -404.917    -583.700
  H     -223.948    -398.049    -586.061
  H     -220.870    -405.346    -586.181
  H     -226.354    -397.583    -578.991
  H     -225.658    -402.725    -582.779
  H     -226.519    -399.874    -584.656
  H     -223.942    -398.883    -583.968
  H     -226.135    -395.636    -580.276
  H     -222.840    -400.985    -584.381
  H     -225.851    -395.785    -581.992
  H     -224.607    -401.260    -586.874
  H     -224.398    -403.699    -586.351
  H     -222.861    -402.966    -586.758
  P     -220.933    -400.540    -586.135
  C     -219.817    -398.282    -585.514
  O     -220.200    -399.572    -585.085
  O     -220.335    -400.109    -587.553
  O     -220.752    -401.999    -585.887
  H     -219.787    -400.827    -587.909
  H     -219.832    -397.609    -584.645
  H     -220.482    -397.891    -586.279
  H     -218.795    -398.314    -585.917
  H     -224.630    -407.049    -583.289
  H     -224.331    -405.392    -582.824
  H     -223.066    -406.587    -582.662

 3  4  5  6  7  8  9  10  11  12  23  26  30  31 0
 6-311+G(2d,p)
 ****
 33  35  36  37  38 0
 6-311+G(2d,p)
 ****
 1  2  13  14  15  16  17  18  19  20  21  22  24  25 0
 3-21G
 ****
 27  28  29  32  34  39  40  41  42  43  44  45  46  47  48  49 0
 3-21G
 ****


