%nproc=1
%NoSave
%Mem=1900MB
#P OB98/GEN NMR

erre ene a

0 1
  C     -111.251      59.013     209.006
  O     -112.645      59.240     208.940
  H     -110.789      59.393     208.090
  H     -111.040      57.943     209.088
  H     -110.825      59.545     209.862
  P     -113.519      58.701     210.173
  C     -113.424      60.760     211.727
  O     -114.201      60.022     210.790
  C     -114.111      62.083     212.063
  O     -114.560      62.697     210.824
  C     -115.339      61.927     212.971
  O     -115.410      63.049     213.856
  C     -116.502      61.985     211.995
  O     -117.717      62.378     212.624
  C     -115.968      62.972     210.956
  N     -120.368      63.790     208.523
  C     -119.913      64.192     209.730
  N     -118.711      63.947     210.294
  C     -117.920      63.253     209.447
  C     -118.246      62.775     208.190
  C     -119.546      63.062     207.728
  N     -120.029      62.628     206.517
  N     -117.186      62.065     207.656
  C     -116.236      62.125     208.571
  N     -116.646      62.815     209.681
  O     -112.790      57.846     211.156
  O     -114.746      57.995     209.427
  H     -118.398      62.507     211.929
  H     -115.106      58.560     208.715
  H     -120.607      64.780     210.328
  H     -115.250      61.675     208.487
  H     -116.089      64.019     211.265
  H     -116.658      60.997     211.546
  H     -115.331      61.002     213.548
  H     -113.372      62.765     212.505
  H     -112.427      60.956     211.318
  H     -120.974      62.882     206.263
  H     -119.434      62.088     205.906
  H     -113.315      60.147     212.629
  P     -115.998      62.843     215.333
  C     -113.926      62.027     216.635
  O     -114.822      63.106     216.399
  O     -116.778      61.585     215.549
  O     -116.930      64.135     215.529
  H     -117.761      63.865     215.967
  H     -113.194      62.323     217.358
  H     -113.438      61.762     215.720
  H     -114.472      61.184     217.004

 6  7  8  9  10  11  12  13  14  15  25  28  32  33  34  35 0
 6-311+G(2d,p)
 ****
 36  39  40 0
 6-311+G(2d,p)
 ****
 1  2  3  4  5  16  17  18  19  20  21  22  23  24 0
 3-21G
 ****
 26  27  29  30  31  37  38  41  42  43  44  45  46  47 0
 3-21G
 ****
 48 0
 3-21G
 ****


