%nproc=1
%NoSave
%Mem=1900MB
#P OB98/GEN NMR

erre ene a

0 1
  C      -51.147      33.660     -56.948
  O      -51.669      34.944     -56.691
  H      -50.468      33.728     -57.803
  H      -51.947      32.960     -57.199
  H      -50.586      33.296     -56.084
  P      -52.844      35.104     -55.606
  C      -53.009      37.534     -54.801
  O      -53.392      36.607     -55.810
  C      -51.731      38.281     -55.183
  O      -51.907      38.918     -56.476
  C      -51.327      39.370     -54.183
  O      -49.930      39.262     -53.899
  C      -51.616      40.667     -54.925
  O      -50.837      41.753     -54.435
  C      -51.350      40.242     -56.373
  N      -51.935      41.152     -57.351
  C      -51.201      41.368     -58.521
  O      -50.102      40.832     -58.671
  N      -51.707      42.214     -59.474
  C      -52.822      42.834     -59.257
  N      -53.265      43.667     -60.238
  C      -53.608      42.673     -58.017
  C      -53.115      41.821     -57.119
  O      -52.452      34.764     -54.207
  O      -54.039      34.205     -56.173
  H      -49.890      41.564     -54.617
  H      -54.665      33.990     -55.438
  H      -54.528      43.221     -57.878
  H      -53.629      41.633     -56.182
  H      -50.271      40.175     -56.566
  H      -52.675      40.928     -54.804
  H      -51.874      39.319     -53.245
  H      -50.929      37.545     -55.314
  H      -52.698      43.748     -61.072
  H      -52.865      36.990     -53.861
  H      -54.117      44.205     -60.175
  H      -53.821      38.259     -54.676
  P      -49.540      38.443     -52.575
  C      -47.052      37.895     -53.041
  O      -47.975      38.672     -52.295
  O      -49.625      36.917     -53.052
  O      -50.442      38.713     -51.415
  H      -50.466      36.519     -52.759
  H      -46.054      38.152     -52.752
  H      -47.183      38.091     -54.085
  H      -47.223      36.856     -52.849

 6  7  8  9  10  11  12  13  14  15  16  26  30  31  32  33  35 0
 6-311+G(2d,p)
 ****
 37  38 0
 6-311+G(2d,p)
 ****
 1  2  3  4  5  17  18  19  20  21  22  23  24  25 0
 3-21G
 ****
 27  28  29  34  36  39  40  41  42  43  44  45  46 0
 3-21G
 ****


