%nproc=1
%NoSave
%Mem=1900MB
#P OB98/GEN NMR

erre ene a

0 1
  C      526.426     265.014     306.936
  O      526.751     266.395     307.047
  P      528.071     266.779     307.879
  C      528.506     267.738     310.263
  O      527.583     267.094     309.381
  C      527.807     268.217     311.531
  O      526.943     269.332     311.203
  C      526.965     267.152     312.231
  O      527.095     267.341     313.640
  C      525.549     267.495     311.817
  O      524.589     267.003     312.751
  C      525.631     269.027     311.712
  N      524.577     269.576     310.855
  C      523.297     269.672     311.409
  O      523.077     269.222     312.536
  N      522.287     270.215     310.656
  C      522.511     270.539     309.420
  N      521.484     271.082     308.719
  C      523.822     270.346     308.759
  C      524.803     269.884     309.536
  O      528.448     268.223     307.303
  O      529.192     265.805     307.750
  H      523.693     267.165     312.387
  H      529.412     268.359     307.311
  H      523.943     270.595     307.715
  H      525.798     269.727     309.146
  H      525.542     269.488     312.708
  H      525.325     267.057     310.833
  H      527.265     266.134     311.967
  H      528.580     268.606     312.221
  H      520.595     271.191     309.184
  H      528.930     268.603     309.752
  H      521.565     271.358     307.745
  H      529.313     267.044     310.503
  P      527.446     266.058     314.537
  C      526.054     264.219     315.675
  O      526.028     265.394     314.889
  O      527.834     266.747     315.937
  O      528.524     265.145     314.065
  H      528.130     266.062     316.567
  H      525.032     263.959     315.953
  H      526.641     264.380     316.585
  H      526.484     263.395     315.093
  H      525.531     264.903     306.361
  H      526.275     264.603     307.913
  H      527.228     264.497     306.451

 3  4  5  6  7  8  9  10  11  12  13  21  23  27  28  29  30  32 0
 6-311+G(2d,p)
 ****
 34  35 0
 6-311+G(2d,p)
 ****
 1  2  14  15  16  17  18  19  20  22  24  25  26 0
 3-21G
 ****
 31  33  36  37  38  39  40  41  42  43  44  45  46 0
 3-21G
 ****


