%nproc=1
%NoSave
%Mem=1900MB
#P OB98/GEN NMR

erre ene a

0 1
  C      -12.545     -15.461     -10.498
  O      -13.730     -14.722     -10.288
  H      -12.816     -16.466     -10.829
  H      -11.969     -15.541      -9.572
  H      -11.938     -14.991     -11.276
  P      -13.606     -13.240      -9.683
  C      -13.886     -14.213      -7.298
  O      -13.066     -13.469      -8.186
  C      -13.307     -14.173      -5.886
  O      -11.945     -14.647      -5.871
  C      -13.240     -12.783      -5.260
  O      -14.502     -12.291      -4.843
  C      -12.310     -13.066      -4.091
  O      -13.034     -13.753      -3.055
  C      -11.270     -14.002      -4.754
  N      -10.079     -13.295      -5.216
  C       -9.174     -12.879      -4.231
  O       -9.393     -13.110      -3.043
  N       -8.056     -12.177      -4.612
  C       -7.868     -11.897      -5.864
  N       -6.769     -11.158      -6.182
  C       -8.785     -12.329      -6.935
  C       -9.860     -13.011      -6.547
  O      -14.820     -12.375      -9.799
  O      -12.315     -12.625     -10.400
  H      -13.754     -13.162      -2.770
  H      -12.202     -11.701     -10.067
  H       -8.585     -12.062      -7.962
  H      -10.589     -13.349      -7.274
  H      -10.964     -14.795      -4.062
  H      -11.887     -12.161      -3.647
  H      -12.748     -12.075      -5.934
  H      -13.894     -14.864      -5.268
  H       -6.187     -10.843      -5.418
  H      -13.945     -15.240      -7.668
  H       -6.701     -10.671      -7.070
  H      -14.893     -13.786      -7.269
  P      -14.959     -10.847      -5.378
  C      -13.983      -9.618      -3.299
  O      -13.972      -9.774      -4.708
  O      -16.346     -10.610      -4.622
  O      -15.084     -10.717      -6.864
  H      -17.101     -10.893      -5.174
  H      -13.272      -8.869      -3.017
  H      -13.725     -10.547      -2.835
  H      -14.960      -9.320      -2.981

 6  7  8  9  10  11  12  13  14  15  16  26  30  31  32  33  35 0
 6-311+G(2d,p)
 ****
 37  38 0
 6-311+G(2d,p)
 ****
 1  2  3  4  5  17  18  19  20  21  22  23  24  25 0
 3-21G
 ****
 27  28  29  34  36  39  40  41  42  43  44  45  46 0
 3-21G
 ****


