%nproc=1
%NoSave
%Mem=1900MB
#P OB98/GEN NMR

erre ene a

0 1
  C     -564.830     501.705    -550.618
  O     -563.934     501.582    -551.698
  P     -564.274     502.219    -553.118
  C     -561.742     502.158    -553.552
  O     -563.030     501.876    -554.079
  C     -560.666     501.397    -554.344
  O     -560.804     501.638    -555.772
  C     -559.248     501.820    -554.026
  O     -558.757     501.536    -552.716
  C     -558.485     501.207    -555.195
  O     -558.230     499.816    -554.975
  C     -559.500     501.401    -556.358
  N     -559.097     502.489    -557.248
  C     -559.233     502.245    -558.607
  O     -559.657     501.192    -559.071
  N     -558.829     503.247    -559.439
  C     -558.261     504.440    -559.054
  O     -557.885     505.278    -559.861
  C     -558.131     504.637    -557.603
  C     -558.541     503.675    -556.772
  O     -564.663     503.667    -553.101
  O     -565.419     501.253    -553.694
  H     -557.702     499.489    -555.739
  H     -565.144     500.323    -553.792
  H     -558.904     503.083    -560.427
  H     -557.703     505.575    -557.264
  H     -558.462     503.796    -555.702
  H     -559.586     500.478    -556.948
  H     -557.516     501.691    -555.344
  H     -559.171     502.907    -554.131
  H     -560.823     500.324    -554.181
  H     -561.707     501.835    -552.509
  H     -561.563     503.241    -553.584
  P     -557.890     502.574    -551.868
  C     -558.410     501.135    -549.777
  O     -557.437     501.850    -550.508
  O     -558.417     503.971    -551.775
  O     -556.514     502.599    -552.702
  H     -556.103     503.480    -552.613
  H     -557.943     500.759    -548.865
  H     -558.774     500.274    -550.378
  H     -559.250     501.774    -549.500
  H     -564.423     501.214    -549.759
  H     -565.765     501.254    -550.877
  H     -564.983     502.741    -550.397

 3  4  5  6  7  8  9  10  11  12  13  23  28  29  30  31  32 0
 6-311+G(2d,p)
 ****
 33  34 0
 6-311+G(2d,p)
 ****
 1  2  14  15  16  17  18  19  20  21  22  24  25  26  27 0
 3-21G
 ****
 35  36  37  38  39  40  41  42  43  44  45 0
 3-21G
 ****


