%nproc=1
%NoSave
%Mem=1900MB
#P OB98/GEN NMR

erre ene a

0 1
  C     -218.376     217.011     153.956
  O     -219.057     215.897     154.496
  H     -219.108     217.783     153.705
  H     -217.839     216.726     153.048
  H     -217.676     217.415     154.692
  P     -218.174     214.603     154.839
  C     -219.587     213.388     153.027
  O     -218.298     213.609     153.587
  C     -219.466     212.448     151.829
  O     -218.788     213.123     150.744
  C     -218.647     211.196     152.102
  O     -219.376     210.204     152.806
  C     -218.301     210.764     150.688
  O     -219.352     209.985     150.098
  C     -218.128     212.110     149.958
  N     -216.720     212.424     149.727
  C     -216.258     212.198     148.433
  O     -216.967     211.767     147.527
  N     -214.931     212.451     148.223
  C     -214.031     212.847     149.168
  O     -212.841     213.001     148.923
  C     -214.574     213.052     150.521
  C     -215.872     212.830     150.738
  O     -219.019     213.879     155.987
  O     -216.775     214.894     155.271
  H     -218.580     214.003     156.849
  H     -219.173     209.975     149.138
  H     -214.576     212.296     147.291
  H     -213.886     213.365     151.298
  H     -216.294     212.965     151.729
  H     -218.637     212.087     148.987
  H     -217.402     210.154     150.676
  H     -217.722     211.455     152.632
  H     -220.477     212.183     151.492
  H     -220.011     214.339     152.691
  H     -220.240     212.962     153.794
  P     -218.555     208.981     153.444
  C     -219.795     206.988     152.257
  O     -218.634     207.796     152.369
  O     -219.549     208.538     154.615
  O     -217.184     209.365     153.886
  H     -220.473     208.759     154.407
  H     -219.649     206.259     151.487
  H     -220.635     207.603     152.012
  H     -219.976     206.492     153.188

 6  7  8  9  10  11  12  13  14  15  16  27  31  32  33  34  35 0
 6-311+G(2d,p)
 ****
 36  37 0
 6-311+G(2d,p)
 ****
 1  2  3  4  5  17  18  19  20  21  22  23  24  25 0
 3-21G
 ****
 26  28  29  30  38  39  40  41  42  43  44  45 0
 3-21G
 ****


