%nproc=1
%NoSave
%Mem=1900MB
#P OB98/GEN NMR

erre ene a

0 1
  C      158.802     190.510     260.308
  O      159.405     189.686     261.287
  H      159.380     191.434     260.225
  H      157.776     190.758     260.597
  H      158.805     190.001     259.338
  P      158.683     188.283     261.588
  C      160.740     186.831     262.139
  O      159.641     187.569     262.664
  C      161.989     187.042     263.003
  O      162.481     188.386     262.776
  C      161.719     186.889     264.501
  O      162.838     186.246     265.115
  C      161.624     188.323     264.996
  O      161.945     188.446     266.381
  C      162.591     189.042     264.054
  N      162.691     193.535     266.472
  C      163.204     192.329     266.786
  N      163.143     191.182     266.073
  C      162.515     191.382     264.905
  C      161.934     192.555     264.443
  C      162.036     193.671     265.292
  N      161.493     194.898     264.988
  N      161.339     192.351     263.211
  C      161.565     191.077     262.928
  N      162.259     190.451     263.926
  O      158.337     187.463     260.395
  O      157.443     188.748     262.489
  H      161.143     188.225     266.898
  H      157.709     189.404     263.156
  H      163.726     192.273     267.738
  H      161.241     190.568     262.023
  H      163.632     188.978     264.393
  H      160.599     188.695     264.856
  H      160.810     186.327     264.711
  H      162.771     186.353     262.663
  H      160.948     187.149     261.110
  H      161.625     195.656     265.645
  H      161.015     195.026     264.108
  H      160.463     185.771     262.127
  P      162.561     185.043     266.139
  C      163.306     182.875     264.938
  O      163.652     183.891     265.876
  O      161.145     184.578     266.231
  O      163.054     185.658     267.540
  H      162.453     185.347     268.244
  H      164.112     182.176     264.856
  H      163.121     183.320     263.983
  H      162.425     182.367     265.271

 6  7  8  9  10  11  12  13  14  15  25  28  32  33  34  35 0
 6-311+G(2d,p)
 ****
 36  39  40 0
 6-311+G(2d,p)
 ****
 1  2  3  4  5  16  17  18  19  20  21  22  23  24 0
 3-21G
 ****
 26  27  29  30  31  37  38  41  42  43  44  45  46  47 0
 3-21G
 ****
 48 0
 3-21G
 ****


