%nproc=1
%NoSave
%Mem=1900MB
#P OB98/GEN NMR

erre ene a

0 1
  C     -161.816    -168.312     151.870
  O     -161.130    -169.194     152.725
  P     -161.366    -169.270     154.303
  C     -160.653    -167.845     156.380
  O     -160.814    -167.919     154.969
  C     -160.761    -166.394     156.874
  O     -161.998    -165.822     156.371
  C     -160.830    -166.320     158.413
  O     -160.056    -165.270     158.982
  C     -162.331    -166.314     158.686
  O     -162.675    -165.809     159.971
  C     -162.859    -165.524     157.493
  N     -167.655    -163.820     157.361
  C     -166.488    -163.116     157.593
  N     -166.635    -161.838     158.019
  N     -165.290    -163.632     157.453
  C     -165.299    -164.950     157.131
  C     -166.394    -165.748     156.874
  C     -167.707    -165.159     157.000
  O     -168.773    -165.775     156.919
  N     -166.028    -167.055     156.648
  C     -164.716    -167.052     156.795
  N     -164.233    -165.802     157.121
  O     -161.042    -170.568     154.972
  O     -162.970    -169.058     154.401
  H     -163.644    -165.682     159.985
  H     -163.283    -169.595     155.160
  H     -168.551    -163.389     157.567
  H     -164.076    -167.923     156.710
  H     -162.809    -164.446     157.672
  H     -162.678    -167.356     158.650
  H     -167.540    -161.467     158.277
  H     -160.394    -167.222     158.861
  H     -165.819    -161.392     158.429
  H     -159.929    -165.812     156.463
  H     -159.654    -168.243     156.600
  H     -161.386    -168.479     156.886
  P     -159.240    -165.256     160.355
  C     -159.724    -165.391     162.877
  O     -160.281    -165.315     161.572
  O     -158.641    -163.775     160.471
  O     -158.139    -166.263     160.437
  H     -157.734    -163.812     160.833
  H     -160.510    -165.701     163.579
  H     -159.350    -164.408     163.174
  H     -158.909    -166.121     162.911
  H     -161.479    -168.456     150.865
  H     -161.624    -167.303     152.170
  H     -162.867    -168.506     151.926

 3  4  5  6  7  8  9  10  11  12  23  26  30  31 0
 6-311+G(2d,p)
 ****
 33  35  36  37  38 0
 6-311+G(2d,p)
 ****
 1  2  13  14  15  16  17  18  19  20  21  22  24  25 0
 3-21G
 ****
 27  28  29  32  34  39  40  41  42  43  44  45  46  47  48  49 0
 3-21G
 ****


