%nproc=1
%NoSave
%Mem=1900MB
#P OB98/GEN NMR

erre ene a

0 1
  C      188.920    -150.160     386.126
  O      188.241    -150.943     385.166
  H      188.214    -149.441     386.556
  H      189.745    -149.611     385.663
  H      189.304    -150.800     386.929
  P      189.138    -151.992     384.339
  C      189.661    -150.453     382.302
  O      190.139    -151.061     383.496
  C      190.685    -150.646     381.181
  O      190.114    -150.316     379.902
  C      191.932    -149.771     381.316
  O      192.853    -150.279     382.262
  C      192.470    -149.851     379.898
  O      193.108    -151.129     379.696
  C      191.171    -149.741     379.071
  N      190.837    -148.367     378.697
  C      190.493    -148.154     377.354
  O      190.493    -149.083     376.546
  N      190.195    -146.870     376.942
  C      190.222    -145.897     377.793
  N      189.929    -144.644     377.333
  C      190.559    -146.079     379.213
  C      190.859    -147.323     379.597
  O      188.140    -152.545     383.218
  O      189.806    -153.059     385.148
  H      192.397    -151.794     379.658
  H      188.634    -153.112     382.577
  H      190.583    -145.233     379.893
  H      191.116    -147.535     380.627
  H      191.229    -150.353     378.163
  H      193.218    -149.081     379.684
  H      191.663    -148.726     381.531
  H      190.954    -151.717     381.154
  H      189.764    -144.538     376.343
  H      189.509    -149.385     382.490
  H      190.104    -143.808     377.869
  H      188.706    -150.905     382.001
  P      193.282    -149.298     383.474
  C      195.728    -148.752     382.771
  O      194.387    -148.281     382.890
  O      194.131    -150.263     384.426
  O      192.136    -148.648     384.195
  H      193.955    -150.064     385.372
  H      196.345    -147.974     382.372
  H      195.752    -149.598     382.116
  H      196.093    -149.038     383.736

 6  7  8  9  10  11  12  13  14  15  16  26  30  31  32  33  35 0
 6-311+G(2d,p)
 ****
 37  38 0
 6-311+G(2d,p)
 ****
 1  2  3  4  5  17  18  19  20  21  22  23  24  25 0
 3-21G
 ****
 27  28  29  34  36  39  40  41  42  43  44  45  46 0
 3-21G
 ****


