%nproc=1
%NoSave
%Mem=1900MB
#P OB98/GEN NMR

erre ene a

0 1
  C      218.861    -398.182     206.189
  O      219.919    -398.086     207.147
  P      221.263    -397.310     206.758
  C      222.470    -399.387     205.812
  O      221.977    -398.082     205.534
  C      223.963    -399.532     205.503
  O      224.499    -400.745     206.078
  C      224.301    -399.549     204.003
  O      225.560    -398.869     203.842
  C      224.457    -401.030     203.724
  O      225.173    -401.288     202.518
  C      225.147    -401.483     205.020
  N      225.052    -402.931     205.224
  C      226.238    -403.608     205.544
  O      227.311    -402.999     205.525
  N      226.164    -404.941     205.828
  C      225.046    -405.572     205.657
  N      225.006    -406.896     205.978
  C      223.815    -404.922     205.166
  C      223.890    -403.606     204.997
  O      222.172    -396.983     207.899
  O      220.717    -395.979     206.059
  H      226.016    -400.789     202.542
  H      221.325    -395.242     206.268
  H      222.932    -405.510     204.959
  H      223.045    -403.038     204.630
  H      226.207    -401.197     205.019
  H      223.466    -401.497     203.630
  H      223.547    -399.055     203.380
  H      224.478    -398.687     205.982
  H      225.867    -407.339     206.298
  H      221.911    -400.119     205.214
  H      224.157    -407.454     205.922
  H      222.249    -399.630     206.860
  P      225.559    -397.352     203.326
  C      225.456    -397.729     200.755
  O      224.781    -397.305     201.917
  O      227.084    -397.159     202.865
  O      225.199    -396.308     204.329
  H      227.309    -396.211     202.901
  H      224.721    -397.911     199.959
  H      226.019    -398.653     200.921
  H      226.154    -396.948     200.423
  H      218.045    -398.729     206.612
  H      219.215    -398.689     205.316
  H      218.531    -397.200     205.922

 3  4  5  6  7  8  9  10  11  12  13  23  27  28  29  30  32 0
 6-311+G(2d,p)
 ****
 34  35 0
 6-311+G(2d,p)
 ****
 1  2  14  15  16  17  18  19  20  21  22  24  25  26 0
 3-21G
 ****
 31  33  36  37  38  39  40  41  42  43  44  45  46 0
 3-21G
 ****


