%nproc=1
%NoSave
%Mem=1900MB
#P OB98/GEN NMR

erre ene a

0 1
  C     -332.073     640.632     591.456
  O     -332.573     639.427     591.992
  H     -332.907     641.343     591.371
  H     -331.661     640.467     590.459
  H     -331.313     641.062     592.115
  P     -331.574     638.185     592.186
  C     -329.549     638.365     593.757
  O     -330.970     638.356     593.667
  C     -329.082     638.699     595.170
  O     -329.587     640.014     595.548
  C     -329.571     637.693     596.235
  O     -328.478     637.335     597.085
  C     -330.594     638.488     597.033
  O     -330.778     637.994     598.357
  C     -330.019     639.905     596.921
  N     -330.992     640.928     597.280
  C     -331.224     641.116     598.647
  O     -330.618     640.437     599.471
  N     -332.178     642.014     599.038
  C     -332.870     642.643     598.144
  N     -333.830     643.503     598.603
  C     -332.686     642.458     596.685
  C     -331.736     641.597     596.330
  O     -330.560     638.022     591.104
  O     -332.533     636.905     592.339
  H     -331.374     638.600     598.837
  H     -332.023     636.096     592.113
  H     -333.305     643.004     595.984
  H     -331.526     641.394     595.285
  H     -329.140     640.021     597.572
  H     -331.567     638.446     596.518
  H     -330.008     636.792     595.805
  H     -327.991     638.778     595.172
  H     -333.927     643.594     599.614
  H     -329.158     639.096     593.037
  H     -334.448     644.029     598.004
  H     -329.173     637.369     593.485
  P     -327.887     635.858     596.878
  C     -327.398     634.982     594.479
  O     -327.009     635.858     595.518
  O     -329.173     634.983     596.513
  O     -327.179     635.319     598.086
  H     -329.385     634.373     597.243
  H     -326.730     635.092     593.651
  H     -328.394     635.218     594.168
  H     -327.365     633.973     594.832

 6  7  8  9  10  11  12  13  14  15  16  26  30  31  32  33  35 0
 6-311+G(2d,p)
 ****
 37  38 0
 6-311+G(2d,p)
 ****
 1  2  3  4  5  17  18  19  20  21  22  23  24  25 0
 3-21G
 ****
 27  28  29  34  36  39  40  41  42  43  44  45  46 0
 3-21G
 ****


