%nproc=1
%NoSave
%Mem=1900MB
#P OB98/GEN NMR

erre ene a

0 1
  C     -737.824      -6.237     452.438
  O     -738.269      -6.735     451.192
  P     -739.138      -8.079     451.124
  C     -741.144      -7.049     449.897
  O     -740.688      -7.669     451.097
  C     -742.578      -6.528     450.091
  O     -742.560      -5.313     450.890
  C     -743.276      -6.156     448.792
  O     -743.724      -7.313     448.104
  C     -744.397      -5.257     449.309
  O     -745.499      -6.036     449.800
  C     -743.700      -4.528     450.471
  N     -745.192      -0.032     448.556
  C     -745.813      -1.217     448.643
  N     -745.339      -2.391     449.128
  C     -744.070      -2.245     449.540
  C     -743.282      -1.093     449.482
  C     -743.902       0.064     448.980
  N     -743.294       1.309     448.949
  N     -742.013      -1.350     449.973
  C     -742.023      -2.623     450.303
  N     -743.257      -3.185     450.125
  O     -738.777      -9.119     452.135
  O     -738.885      -8.624     449.641
  H     -746.064      -5.425     450.318
  H     -738.469      -9.506     449.679
  H     -746.841      -1.252     448.282
  H     -741.176      -3.179     450.690
  H     -744.358      -4.437     451.346
  H     -744.783      -4.585     448.533
  H     -742.602      -5.568     448.152
  H     -743.145      -7.289     450.638
  H     -741.137      -7.796     449.097
  H     -743.886       2.090     448.713
  H     -742.485       1.454     449.537
  H     -740.482      -6.230     449.633
  P     -743.083      -7.700     446.690
  C     -742.385     -10.028     447.521
  O     -741.948      -8.800     446.987
  O     -742.661      -6.544     445.842
  O     -744.234      -8.562     445.978
  H     -744.199      -8.414     445.010
  H     -742.579      -9.904     448.597
  H     -741.603     -10.774     447.383
  H     -743.307     -10.371     447.027
  H     -737.263      -5.339     452.283
  H     -737.203      -6.968     452.913
  H     -738.669      -6.028     453.061

 3  4  5  6  7  8  9  10  11  12  22  25  29  30  31  32 0
 6-311+G(2d,p)
 ****
 33  36  37 0
 6-311+G(2d,p)
 ****
 1  2  13  14  15  16  17  18  19  20  21  23  24  26 0
 3-21G
 ****
 27  28  34  35  38  39  40  41  42  43  44  45  46  47  48 0
 3-21G
 ****


