%nproc=1
%NoSave
%Mem=1900MB
#P OB98/GEN NMR

erre ene a

0 1
  C       51.738      35.475    -138.510
  O       52.443      36.644    -138.155
  P       54.036      36.636    -137.980
  C       55.652      35.930    -136.099
  O       54.352      35.774    -136.658
  C       55.953      34.788    -135.121
  O       55.928      33.525    -135.856
  C       57.339      34.920    -134.453
  O       57.316      34.845    -133.025
  C       58.151      33.839    -135.151
  O       59.294      33.425    -134.431
  C       57.081      32.775    -135.426
  N       57.510      31.792    -136.420
  C       58.502      30.892    -136.037
  O       59.024      30.866    -134.923
  N       58.940      30.033    -137.005
  C       58.580      30.057    -138.321
  O       59.088      29.323    -139.156
  C       57.557      31.059    -138.676
  C       57.059      31.852    -137.725
  O       54.689      37.976    -138.009
  O       54.522      35.648    -139.144
  H       59.784      34.225    -134.155
  H       54.166      34.743    -139.089
  H       59.658      29.376    -136.741
  H       57.262      31.108    -139.715
  H       56.307      32.598    -137.957
  H       56.803      32.244    -134.513
  H       58.507      34.252    -136.104
  H       57.782      35.900    -134.661
  H       55.153      34.773    -134.374
  H       55.695      36.882    -135.563
  H       56.399      35.972    -136.902
  P       58.410      35.496    -132.054
  C       60.932      35.111    -131.550
  O       59.832      34.849    -132.396
  O       58.051      35.500    -130.605
  O       58.550      36.996    -132.602
  H       58.804      37.587    -131.870
  H       61.851      35.054    -132.141
  H       60.974      34.347    -130.768
  H       60.863      36.103    -131.092
  H       50.693      35.695    -138.574
  H       51.899      34.722    -137.767
  H       52.087      35.122    -139.458

 3  4  5  6  7  8  9  10  11  12  13  23  28  29  30  31  32 0
 6-311+G(2d,p)
 ****
 33  34 0
 6-311+G(2d,p)
 ****
 1  2  14  15  16  17  18  19  20  21  22  24  25  26  27 0
 3-21G
 ****
 35  36  37  38  39  40  41  42  43  44  45 0
 3-21G
 ****


