%nproc=1
%NoSave
%Mem=1900MB
#P OB98/GEN NMR

erre ene a

0 1
  C      203.259    -269.621    -120.870
  O      204.140    -270.542    -120.257
  P      205.699    -270.531    -120.628
  C      207.112    -271.227    -122.700
  O      205.828    -271.064    -122.133
  C      207.021    -271.826    -124.107
  O      206.169    -270.967    -124.906
  C      208.347    -271.907    -124.858
  O      208.209    -272.834    -125.936
  C      208.479    -270.506    -125.407
  O      209.389    -270.439    -126.505
  C      207.010    -270.131    -125.742
  N      206.738    -268.706    -125.483
  C      207.273    -267.794    -126.382
  O      207.877    -268.132    -127.403
  N      207.163    -266.476    -126.034
  C      206.628    -266.008    -124.872
  O      206.813    -264.880    -124.438
  C      205.876    -266.998    -124.079
  C      205.986    -268.286    -124.402
  O      206.283    -271.730    -119.744
  O      206.397    -269.245    -120.347
  H      209.546    -269.479    -126.679
  H      206.660    -271.386    -118.913
  H      207.677    -265.824    -126.615
  H      205.307    -266.644    -123.227
  H      205.484    -269.048    -123.805
  H      206.776    -270.341    -126.791
  H      208.865    -269.845    -124.622
  H      209.203    -272.183    -124.230
  H      206.547    -272.811    -124.054
  H      207.716    -271.865    -122.045
  H      207.628    -270.260    -122.753
  P      209.399    -273.882    -126.184
  C      211.783    -273.748    -127.125
  O      210.654    -273.020    -126.699
  O      209.058    -275.076    -127.005
  O      209.839    -274.290    -124.696
  H      210.342    -275.125    -124.716
  H      212.310    -273.166    -127.888
  H      211.502    -274.723    -127.549
  H      212.455    -273.907    -126.278
  H      202.267    -269.777    -120.501
  H      203.273    -269.766    -121.930
  H      203.571    -268.623    -120.642

 3  4  5  6  7  8  9  10  11  12  13  23  28  29  30  31  32 0
 6-311+G(2d,p)
 ****
 33  34 0
 6-311+G(2d,p)
 ****
 1  2  14  15  16  17  18  19  20  21  22  24  25  26  27 0
 3-21G
 ****
 35  36  37  38  39  40  41  42  43  44  45 0
 3-21G
 ****


