%nproc=1
%NoSave
%Mem=1900MB
#P OB98/GEN NMR

erre ene a

0 1
  C       79.409    -212.601     -13.697
  O       80.649    -212.041     -14.129
  P       80.987    -212.030     -15.696
  C       79.436    -210.091     -16.383
  O       80.781    -210.536     -16.242
  C       79.324    -209.045     -17.493
  O       77.954    -208.827     -17.883
  C       79.851    -207.679     -17.087
  O       81.267    -207.670     -17.055
  C       79.220    -206.789     -18.145
  O       79.985    -206.810     -19.361
  C       77.851    -207.471     -18.370
  N       76.745    -206.762     -17.747
  C       76.008    -205.917     -18.583
  O       76.332    -205.774     -19.762
  N       74.934    -205.243     -18.055
  C       74.631    -205.394     -16.803
  N       73.556    -204.706     -16.336
  C       75.389    -206.266     -15.886
  C       76.428    -206.907     -16.417
  O       80.333    -213.100     -16.505
  O       82.585    -212.187     -15.714
  H       80.876    -206.483     -19.124
  H       82.846    -212.653     -16.532
  H       75.092    -206.364     -14.852
  H       77.042    -207.566     -15.814
  H       77.637    -207.545     -19.445
  H       79.162    -205.746     -17.819
  H       79.457    -207.411     -16.097
  H       79.881    -209.414     -18.366
  H       73.059    -204.105     -16.983
  H       79.092    -209.667     -15.436
  H       73.210    -204.796     -15.391
  H       78.799    -210.957     -16.591
  P       81.979    -207.165     -15.710
  C       83.018    -209.503     -15.299
  O       83.239    -208.114     -15.438
  O       80.938    -207.598     -14.570
  O       82.254    -205.698     -15.659
  H       80.953    -206.943     -13.848
  H       83.972    -210.023     -15.437
  H       82.308    -209.872     -16.043
  H       82.643    -209.718     -14.296
  H       79.338    -212.531     -12.632
  H       79.360    -213.629     -13.991
  H       78.600    -212.063     -14.144

 3  4  5  6  7  8  9  10  11  12  13  23  27  28  29  30  32 0
 6-311+G(2d,p)
 ****
 34  35 0
 6-311+G(2d,p)
 ****
 1  2  14  15  16  17  18  19  20  21  22  24  25  26 0
 3-21G
 ****
 31  33  36  37  38  39  40  41  42  43  44  45  46 0
 3-21G
 ****


