%nproc=1
%NoSave
%Mem=1900MB
#P OB98/GEN NMR

erre ene a

0 1
  C     -889.240    -694.762    -898.950
  O     -888.630    -694.597    -897.680
  H     -890.170    -694.191    -899.010
  H     -888.570    -694.410    -899.730
  H     -889.450    -695.829    -899.130
  P     -889.470    -695.077    -896.410
  C     -891.910    -694.655    -895.630
  O     -890.820    -694.224    -896.420
  C     -892.650    -693.457    -895.050
  O     -892.990    -692.497    -896.100
  C     -893.980    -693.794    -894.370
  O     -893.780    -694.270    -893.050
  C     -894.660    -692.428    -894.370
  O     -894.090    -691.601    -893.340
  C     -894.250    -691.903    -895.750
  N     -898.930    -690.815    -897.560
  C     -898.250    -690.378    -896.470
  N     -897.010    -690.689    -896.050
  C     -896.470    -691.621    -896.880
  C     -897.030    -692.167    -898.060
  C     -898.330    -691.704    -898.370
  N     -899.020    -692.169    -899.460
  N     -896.170    -693.082    -898.630
  C     -895.090    -693.045    -897.860
  N     -895.210    -692.177    -896.790
  O     -888.670    -694.460    -895.170
  O     -889.660    -696.556    -896.270
  H     -894.310    -692.037    -892.480
  H     -888.880    -694.930    -894.350
  H     -898.780    -689.637    -895.850
  H     -894.200    -693.633    -898.040
  H     -894.080    -690.791    -895.740
  H     -895.710    -692.475    -894.210
  H     -894.580    -694.495    -894.990
  H     -891.980    -692.936    -894.330
  H     -891.540    -695.273    -894.790
  H     -900.000    -691.949    -899.490
  H     -898.620    -692.962    -900.000
  H     -892.600    -695.266    -896.230
  P     -894.840    -695.375    -892.520
  C     -897.420    -695.363    -891.990
  O     -896.280    -694.650    -892.530
  O     -894.500    -695.511    -890.960
  O     -894.770    -696.694    -893.240
  H     -894.720    -696.391    -890.600
  H     -898.294    -694.751    -892.069
  H     -897.240    -695.596    -890.961
  H     -897.568    -696.269    -892.540

 6  7  8  9  10  11  12  13  14  15  25  28  32  33  34  35 0
 6-311+G(2d,p)
 ****
 36  39  40 0
 6-311+G(2d,p)
 ****
 1  2  3  4  5  16  17  18  19  20  21  22  23  24 0
 3-21G
 ****
 26  27  29  30  31  37  38  41  42  43  44  45  46  47 0
 3-21G
 ****
 48 0
 3-21G
 ****


