%nproc=1
%NoSave
%Mem=1900MB
#P OB98/GEN NMR

erre ene a

0 1
  C     -283.025     170.100     -19.018
  O     -282.925     168.725     -18.682
  P     -284.176     167.735     -18.863
  C     -282.642     165.865     -19.774
  O     -283.553     166.260     -18.759
  C     -281.619     164.886     -19.202
  O     -280.748     165.578     -18.288
  C     -282.226     163.733     -18.407
  O     -282.780     162.756     -19.268
  C     -281.020     163.284     -17.588
  O     -280.152     162.466     -18.390
  C     -280.327     164.632     -17.277
  N     -280.624     165.124     -15.936
  C     -279.620     164.964     -14.978
  O     -278.543     164.447     -15.268
  N     -279.844     165.437     -13.708
  C     -280.979     165.995     -13.413
  N     -281.120     166.503     -12.160
  C     -282.085     166.128     -14.380
  C     -281.840     165.680     -15.609
  O     -284.997     167.980     -20.083
  O     -284.992     167.864     -17.498
  H     -279.348     162.306     -17.862
  H     -285.665     168.589     -17.505
  H     -283.017     166.589     -14.085
  H     -282.592     165.763     -16.381
  H     -279.243     164.532     -17.386
  H     -281.288     162.717     -16.693
  H     -283.007     164.106     -17.733
  H     -281.013     164.500     -20.031
  H     -280.280     166.546     -11.589
  H     -282.120     166.755     -20.140
  H     -281.832     167.187     -11.942
  H     -283.196     165.414     -20.604
  P     -283.449     161.463     -18.593
  C     -285.257     161.215     -20.436
  O     -284.130     160.643     -19.793
  O     -284.679     162.073     -17.773
  O     -282.523     160.677     -17.725
  H     -284.455     162.142     -16.825
  H     -285.445     160.661     -21.360
  H     -285.068     162.262     -20.684
  H     -286.134     161.133     -19.790
  H     -282.090     170.583     -18.826
  H     -283.791     170.557     -18.426
  H     -283.270     170.197     -20.055

 3  4  5  6  7  8  9  10  11  12  13  23  27  28  29  30  32 0
 6-311+G(2d,p)
 ****
 34  35 0
 6-311+G(2d,p)
 ****
 1  2  14  15  16  17  18  19  20  21  22  24  25  26 0
 3-21G
 ****
 31  33  36  37  38  39  40  41  42  43  44  45  46 0
 3-21G
 ****


