%nproc=1
%NoSave
%Mem=1900MB
#P OB98/GEN NMR

erre ene a

0 1
  C      197.157    -362.417     -76.780
  O      197.845    -363.432     -77.484
  H      197.865    -361.800     -76.220
  H      196.631    -361.783     -77.499
  H      196.426    -362.860     -76.097
  P      198.680    -364.486     -76.607
  C      200.355    -364.213     -74.637
  O      199.738    -363.614     -75.771
  C      201.704    -363.552     -74.379
  O      202.499    -363.548     -75.587
  C      201.615    -362.091     -73.939
  O      201.327    -361.964     -72.558
  C      203.022    -361.621     -74.257
  O      203.930    -362.082     -73.241
  C      203.298    -362.334     -75.585
  N      205.067    -358.985     -79.027
  C      205.650    -359.576     -77.962
  N      205.110    -360.453     -77.094
  C      203.827    -360.707     -77.409
  C      203.096    -360.172     -78.455
  C      203.772    -359.272     -79.299
  N      203.177    -358.655     -80.378
  N      201.796    -360.642     -78.435
  C      201.760    -361.472     -77.414
  N      202.959    -361.540     -76.751
  O      199.598    -365.231     -77.688
  O      197.871    -365.437     -75.792
  H      204.798    -361.678     -73.438
  H      199.899    -366.090     -77.336
  H      206.689    -359.308     -77.788
  H      200.893    -362.047     -77.111
  H      204.350    -362.635     -75.690
  H      203.110    -360.532     -74.294
  H      200.900    -361.528     -74.554
  H      202.239    -364.151     -73.630
  H      200.505    -365.277     -74.832
  H      203.685    -357.893     -80.801
  H      202.178    -358.748     -80.493
  H      199.698    -364.097     -73.767
  P      199.981    -361.187     -72.154
  C      199.183    -358.727     -72.450
  O      200.284    -359.633     -72.402
  O      199.954    -361.314     -70.561
  O      198.739    -361.717     -72.789
  H      199.038    -361.265     -70.225
  H      199.545    -357.735     -72.621
  H      198.654    -358.759     -71.520
  H      198.524    -359.008     -73.245

 6  7  8  9  10  11  12  13  14  15  25  28  32  33  34  35 0
 6-311+G(2d,p)
 ****
 36  39  40 0
 6-311+G(2d,p)
 ****
 1  2  3  4  5  16  17  18  19  20  21  22  23  24 0
 3-21G
 ****
 26  27  29  30  31  37  38  41  42  43  44  45  46  47 0
 3-21G
 ****
 48 0
 3-21G
 ****


