%nproc=1
%NoSave
%Mem=1900MB
#P OB98/GEN NMR

erre ene a

0 1
  C      289.761    -895.109     358.980
  O      290.236    -895.279     357.658
  H      289.074    -895.919     359.212
  H      289.220    -894.159     359.064
  H      290.588    -895.129     359.693
  P      291.386    -894.299     357.120
  C      293.184    -896.139     356.950
  O      292.788    -894.919     357.572
  C      294.062    -895.839     355.743
  O      295.295    -895.199     356.171
  C      294.494    -897.079     354.965
  O      293.439    -897.559     354.163
  C      295.692    -896.529     354.196
  O      295.261    -895.819     353.026
  C      296.336    -895.589     355.231
  N      297.467    -896.189     355.916
  C      298.709    -896.029     355.310
  O      298.883    -895.469     354.227
  N      299.774    -896.599     355.974
  C      299.692    -897.369     357.105
  O      300.666    -897.919     357.605
  C      298.361    -897.519     357.684
  C      297.323    -896.929     357.086
  O      291.197    -892.849     357.438
  O      291.368    -894.549     355.530
  H      296.028    -895.269     352.737
  H      290.946    -893.799     355.086
  H      300.683    -896.519     355.535
  H      298.261    -898.109     358.587
  H      296.325    -897.029     357.494
  H      296.668    -894.669     354.743
  H      296.348    -897.329     353.856
  H      294.835    -897.849     355.657
  H      293.527    -895.119     355.089
  H      292.287    -896.669     356.621
  H      293.722    -896.759     357.688
  P      293.383    -899.109     353.754
  C      291.068    -899.439     354.849
  O      292.434    -899.859     354.823
  O      294.705    -899.769     353.530
  O      292.504    -899.139     352.421
  H      293.034    -899.499     351.680
  H      290.537    -900.000     355.589
  H      290.625    -899.606     353.889
  H      291.020    -898.398     355.088

 6  7  8  9  10  11  12  13  14  15  16  26  31  32  33  34  35 0
 6-311+G(2d,p)
 ****
 36  37 0
 6-311+G(2d,p)
 ****
 1  2  3  4  5  17  18  19  20  21  22  23  24  25 0
 3-21G
 ****
 27  28  29  30  38  39  40  41  42  43  44  45 0
 3-21G
 ****


