%nproc=1
%NoSave
%Mem=1900MB
#P OB98/GEN NMR

erre ene a

0 1
  C       60.147    -111.415      15.526
  O       59.677    -110.361      14.712
  H       61.231    -111.324      15.629
  H       59.921    -112.371      15.048
  H       59.692    -111.377      16.519
  P       58.103    -110.056      14.741
  C       57.863    -109.251      12.286
  O       57.839    -108.897      13.660
  C       59.078    -108.631      11.596
  O       60.281    -109.299      12.084
  C       59.063    -108.757      10.063
  O       59.633    -107.569       9.497
  C       60.020    -109.907       9.812
  O       60.572    -109.876       8.501
  C       61.041    -109.675      10.921
  N       65.401    -111.844       9.713
  C       64.942    -110.563       9.481
  N       65.738    -109.745       8.760
  N       63.791    -110.121       9.913
  C       63.100    -111.035      10.636
  C       63.442    -112.331      10.933
  C       64.712    -112.817      10.433
  O       65.165    -113.946      10.587
  N       62.442    -112.954      11.638
  C       61.492    -112.041      11.747
  N       61.845    -110.861      11.154
  O       57.919    -109.309      16.146
  O       57.218    -111.251      14.626
  H       59.840    -109.970       7.858
  H       57.654    -109.953      16.830
  H       66.288    -112.140       9.343
  H       60.534    -112.190      12.223
  H       61.737    -108.859      10.687
  H       59.500    -110.864       9.947
  H       66.650    -110.003       8.420
  H       58.069    -108.927       9.641
  H       65.431    -108.790       8.617
  H       59.153    -107.579      11.897
  H       56.953    -108.882      11.803
  H       57.890    -110.342      12.195
  P       59.009    -107.014       8.129
  C       61.081    -105.640       7.359
  O       59.722    -105.622       7.769
  O       57.533    -106.569       8.560
  O       58.978    -108.019       7.026
  H       56.912    -106.727       7.824
  H       61.406    -104.641       7.157
  H       61.179    -106.232       6.473
  H       61.683    -106.060       8.137

 6  7  8  9  10  11  12  13  14  15  26  29  33  34 0
 6-311+G(2d,p)
 ****
 36  38  39  40  41 0
 6-311+G(2d,p)
 ****
 1  2  3  4  5  16  17  18  19  20  21  22  23  24  25 0
 3-21G
 ****
 27  28  30  31  32  35  37  42  43  44  45  46  47 0
 3-21G
 ****
 48  49 0
 3-21G
 ****


