%nproc=1
%NoSave
%Mem=1900MB
#P OB98/GEN NMR

erre ene a

0 1
  C     -434.954     340.853    -183.074
  O     -434.628     341.820    -184.056
  H     -435.827     341.199    -182.515
  H     -434.118     340.729    -182.380
  H     -435.191     339.898    -183.549
  P     -433.382     341.484    -185.005
  C     -430.834     341.921    -184.791
  O     -432.100     341.915    -184.139
  C     -430.093     343.223    -184.497
  O     -430.808     344.353    -185.027
  C     -429.901     343.521    -183.013
  O     -428.800     342.787    -182.488
  C     -429.621     345.012    -183.054
  O     -428.247     345.237    -183.424
  C     -430.552     345.501    -184.177
  N     -434.158     349.036    -185.105
  C     -432.927     348.850    -185.629
  N     -432.009     347.916    -185.307
  C     -432.459     347.112    -184.329
  C     -433.693     347.188    -183.693
  C     -434.570     348.198    -184.124
  N     -435.830     348.378    -183.595
  N     -433.812     346.201    -182.733
  C     -432.687     345.517    -182.825
  N     -431.827     346.050    -183.745
  O     -433.457     342.031    -186.391
  O     -433.343     339.884    -184.904
  H     -428.123     346.198    -183.538
  H     -433.548     339.595    -183.999
  H     -432.646     349.543    -186.418
  H     -432.460     344.618    -182.258
  H     -430.070     346.269    -184.801
  H     -429.768     345.488    -182.082
  H     -430.827     343.341    -182.451
  H     -429.122     343.179    -185.009
  H     -430.964     341.804    -185.870
  H     -436.319     349.224    -183.837
  H     -436.085     347.834    -182.790
  H     -430.264     341.066    -184.410
  P     -428.996     341.819    -181.224
  C     -428.999     342.393    -178.714
  O     -429.482     342.754    -180.008
  O     -427.825     340.950    -180.907
  O     -430.300     340.964    -181.566
  H     -430.193     340.039    -181.260
  H     -429.382     343.078    -177.986
  H     -427.930     342.429    -178.710
  H     -429.323     341.401    -178.476

 6  7  8  9  10  11  12  13  14  15  25  28  32  33  34  35 0
 6-311+G(2d,p)
 ****
 36  39  40 0
 6-311+G(2d,p)
 ****
 1  2  3  4  5  16  17  18  19  20  21  22  23  24 0
 3-21G
 ****
 26  27  29  30  31  37  38  41  42  43  44  45  46  47 0
 3-21G
 ****
 48 0
 3-21G
 ****


