%nproc=1
%NoSave
%Mem=1900MB
#P OB98/GEN NMR

erre ene a

0 1
  C      107.936     410.135     741.262
  O      107.046     409.493     742.151
  H      108.177     409.438     740.450
  H      108.866     410.397     741.778
  H      107.480     411.030     740.828
  P      106.535     410.306     743.439
  C      105.095     408.253     744.105
  O      106.119     409.159     744.493
  C      105.275     406.919     744.820
  O      105.346     407.099     746.256
  C      104.129     405.928     744.621
  O      104.110     405.335     743.334
  C      104.465     404.921     745.712
  O      105.571     404.108     745.301
  C      104.864     405.874     746.872
  N      103.754     406.166     747.774
  C      103.893     405.736     749.103
  O      104.919     405.155     749.473
  N      102.877     405.976     749.991
  C      101.781     406.547     749.583
  N      100.785     406.742     750.498
  C      101.572     406.987     748.188
  C      102.589     406.765     747.352
  O      105.498     411.352     743.186
  O      107.873     410.881     744.099
  H      105.318     403.701     744.447
  H      107.616     411.403     744.901
  H      100.640     407.430     747.886
  H      102.507     407.055     746.308
  H      105.692     405.451     747.453
  H      103.628     404.253     745.951
  H      103.168     406.395     744.856
  H      106.235     406.498     744.499
  H      100.960     406.428     751.444
  H      105.143     408.124     743.020
  H       99.889     407.113     750.251
  H      104.113     408.666     744.373
  P      102.664     405.074     742.677
  C      103.981     404.560     740.484
  O      102.918     404.215     741.353
  O      102.252     406.515     742.127
  O      101.637     404.497     743.603
  H      101.649     406.972     742.756
  H      104.000     403.882     739.657
  H      104.908     404.502     741.014
  H      103.838     405.557     740.124

 6  7  8  9  10  11  12  13  14  15  16  26  30  31  32  33  35 0
 6-311+G(2d,p)
 ****
 37  38 0
 6-311+G(2d,p)
 ****
 1  2  3  4  5  17  18  19  20  21  22  23  24  25 0
 3-21G
 ****
 27  28  29  34  36  39  40  41  42  43  44  45  46 0
 3-21G
 ****


