%nproc=1
%NoSave
%Mem=1900MB
#P OB98/GEN NMR

erre ene a

0 1
  C      119.299       1.996    -118.954
  O      119.479       2.813    -117.794
  P      118.676       2.398    -116.467
  C      116.767       4.118    -115.984
  O      118.133       3.770    -115.834
  C      116.560       5.620    -115.766
  O      116.481       5.904    -114.337
  C      117.664       6.504    -116.357
  O      117.026       7.687    -116.859
  C      118.518       6.839    -115.148
  O      119.287       8.016    -115.348
  C      117.441       6.946    -114.063
  N      117.986       6.833    -112.713
  C      118.681       7.930    -112.220
  O      118.915       8.931    -112.896
  N      119.143       7.820    -110.937
  C      119.046       6.712    -110.145
  O      119.478       6.667    -109.000
  C      118.399       5.543    -110.760
  C      117.909       5.657    -111.997
  O      119.869       1.958    -115.501
  O      117.640       1.352    -116.717
  H      120.669       2.500    -115.602
  H      119.976       7.837    -116.019
  H      119.623       8.617    -110.550
  H      118.356       4.628    -110.185
  H      117.447       4.810    -112.486
  H      116.912       7.904    -114.143
  H      119.201       6.010    -114.933
  H      118.219       6.012    -117.161
  H      115.592       5.895    -116.203
  H      116.163       3.569    -115.254
  H      116.424       3.810    -116.978
  P      117.051       7.948    -118.448
  C      118.602      10.054    -118.332
  O      117.346       9.508    -118.663
  O      115.485       7.832    -118.773
  O      117.879       6.989    -119.234
  H      114.928       8.337    -118.158
  H      118.677      11.053    -118.769
  H      119.416       9.442    -118.729
  H      118.697      10.136    -117.246
  H      119.888       2.384    -119.759
  H      118.266       1.998    -119.235
  H      119.608       0.995    -118.737

 3  4  5  6  7  8  9  10  11  12  13  24  28  29  30  31  32 0
 6-311+G(2d,p)
 ****
 33  34 0
 6-311+G(2d,p)
 ****
 1  2  14  15  16  17  18  19  20  21  22  23  25  26  27 0
 3-21G
 ****
 35  36  37  38  39  40  41  42  43  44  45 0
 3-21G
 ****


