%nproc=1
%NoSave
%Mem=1900MB
#P OB98/GEN NMR

erre ene a

0 1
  C       50.987      -7.993    -144.456
  O       49.726      -7.863    -145.115
  P       48.897      -6.527    -144.787
  C       46.772      -7.892    -144.206
  O       47.717      -6.927    -143.773
  C       45.510      -7.856    -143.335
  O       45.862      -7.895    -141.919
  C       44.649      -6.601    -143.551
  O       43.283      -7.009    -143.399
  C       45.081      -5.718    -142.392
  O       44.183      -4.650    -142.137
  C       45.207      -6.769    -141.297
  N       44.793      -5.140    -136.481
  C       43.867      -5.508    -137.393
  N       44.058      -5.928    -138.661
  C       45.369      -5.954    -138.956
  C       46.428      -5.605    -138.133
  C       46.100      -5.180    -136.834
  N       47.033      -4.782    -135.906
  N       47.634      -5.741    -138.805
  C       47.287      -6.094    -140.030
  N       45.945      -6.314    -140.142
  O       48.136      -6.213    -146.159
  O       49.752      -5.389    -144.337
  H       44.532      -4.088    -141.416
  H       48.608      -5.524    -146.661
  H       42.834      -5.455    -137.060
  H       47.966      -6.204    -140.865
  H       44.227      -7.112    -140.939
  H       46.059      -5.277    -142.619
  H       44.779      -6.143    -144.534
  H       44.919      -8.755    -143.549
  H       47.208      -8.892    -144.161
  H       46.699      -4.488    -135.001
  H       48.016      -4.787    -136.134
  H       46.531      -7.709    -145.258
  P       42.423      -7.338    -144.714
  C       40.779      -5.388    -144.440
  O       41.857      -5.913    -145.190
  O       41.115      -7.988    -144.053
  O       43.084      -8.197    -145.738
  H       40.766      -7.427    -143.338
  H       40.547      -4.389    -144.815
  H       41.051      -5.318    -143.384
  H       39.898      -6.025    -144.559
  H       51.448      -8.914    -144.747
  H       50.838      -7.988    -143.396
  H       51.619      -7.175    -144.731

 3  4  5  6  7  8  9  10  11  12  22  25  29  30  31  32 0
 6-311+G(2d,p)
 ****
 33  36  37 0
 6-311+G(2d,p)
 ****
 1  2  13  14  15  16  17  18  19  20  21  23  24  26 0
 3-21G
 ****
 27  28  34  35  38  39  40  41  42  43  44  45  46  47  48 0
 3-21G
 ****


