%nproc=1
%NoSave
%Mem=1900MB
#P OB98/GEN NMR

erre ene a

0 1
  C      110.089    -598.954      31.811
  O      110.083    -597.530      31.802
  P      109.645    -596.796      30.437
  C      111.817    -595.426      30.821
  O      110.975    -596.095      29.884
  C      113.285    -595.657      30.484
  O      113.601    -597.057      30.623
  C      113.673    -595.293      29.062
  O      113.885    -593.901      28.912
  C      114.971    -596.076      28.901
  O      116.052    -595.331      29.492
  C      114.686    -597.348      29.712
  N      115.472    -602.272      28.828
  C      116.039    -601.444      29.770
  N      116.928    -602.009      30.619
  N      115.769    -600.167      29.872
  C      114.838    -599.745      28.990
  C      114.207    -600.473      28.008
  C      114.552    -601.873      27.869
  O      114.128    -602.646      27.011
  N      113.306    -599.701      27.310
  C      113.365    -598.519      27.898
  N      114.311    -598.488      28.900
  O      108.766    -595.567      30.962
  O      108.893    -597.651      29.475
  H      116.815    -595.930      29.547
  H      108.134    -595.295      30.265
  H      115.703    -603.252      28.806
  H      112.766    -597.667      27.631
  H      115.555    -597.623      30.327
  H      115.231    -596.252      27.854
  H      117.074    -603.007      30.674
  H      112.928    -595.665      28.343
  H      117.329    -601.430      31.347
  H      113.889    -595.097      31.207
  H      111.613    -595.823      31.827
  H      111.582    -594.356      30.815
  P      112.862    -593.106      27.956
  C      115.073    -592.357      26.809
  O      113.709    -592.728      26.652
  O      112.658    -591.708      28.710
  O      111.572    -593.827      27.717
  H      111.793    -591.328      28.477
  H      115.555    -592.938      27.611
  H      115.129    -591.294      27.043
  H      115.598    -592.551      25.877
  H      110.398    -599.303      32.774
  H      110.769    -599.313      31.067
  H      109.105    -599.316      31.599

 3  4  5  6  7  8  9  10  11  12  23  26  30  31  33  0
 6-311+G(2d,p)
 ****
 35  36  37  38 0
 6-311+G(2d,p)
 ****
 1  2  13  14  15  16  17  18  19  20  21  22  24  25  27  28  29 0
 3-21G
 ****
 32  34  39  40  41  42  43  44  45  46  47  48  49 0
 3-21G
 ****


