%nproc=1
%NoSave
%Mem=1900MB
#P OB98/GEN NMR

erre ene a

0 1
  C     -272.488     196.418    -127.923
  O     -272.287     197.767    -128.279
  H     -273.393     196.060    -128.426
  H     -272.631     196.319    -126.845
  H     -271.643     195.807    -128.248
  P     -271.134     198.606    -127.535
  C     -272.866     200.240    -126.573
  O     -271.727     200.102    -127.415
  C     -273.699     201.465    -126.953
  O     -272.845     202.638    -127.011
  C     -274.404     201.338    -128.310
  O     -275.767     201.757    -128.180
  C     -273.640     202.302    -129.205
  O     -274.425     202.752    -130.306
  C     -273.219     203.375    -128.192
  N     -272.129     204.217    -128.674
  C     -272.493     205.326    -129.440
  O     -273.677     205.539    -129.710
  N     -271.507     206.155    -129.919
  C     -270.262     205.872    -129.692
  N     -269.333     206.723    -130.200
  C     -269.832     204.680    -128.927
  C     -270.809     203.909    -128.446
  O     -269.788     198.512    -128.166
  O     -271.173     198.084    -126.023
  H     -275.122     203.358    -129.965
  H     -270.314     198.299    -125.579
  H     -268.783     204.478    -128.777
  H     -270.585     203.018    -127.867
  H     -274.069     204.022    -127.934
  H     -272.750     201.800    -129.605
  H     -274.393     200.328    -128.709
  H     -274.419     201.657    -126.146
  H     -269.671     207.528    -130.715
  H     -272.527     200.314    -125.535
  H     -268.336     206.597    -130.093
  H     -273.483     199.338    -126.687
  P     -276.862     200.584    -128.117
  C     -278.627     202.344    -128.832
  O     -278.308     201.265    -127.961
  O     -276.599     199.914    -126.688
  O     -276.741     199.592    -129.225
  H     -276.084     199.095    -126.789
  H     -279.614     202.697    -128.616
  H     -278.582     202.008    -129.847
  H     -277.925     203.138    -128.688

 6  7  8  9  10  11  12  13  14  15  16  26  30  31  32  33  35 0
 6-311+G(2d,p)
 ****
 37  38 0
 6-311+G(2d,p)
 ****
 1  2  3  4  5  17  18  19  20  21  22  23  24  25 0
 3-21G
 ****
 27  28  29  34  36  39  40  41  42  43  44  45  46 0
 3-21G
 ****


