%nproc=1
%NoSave
%Mem=1900MB
#P OB98/GEN NMR

erre ene a

0 1
  C     -970.948      19.864      23.948
  O     -969.648      20.357      23.688
  H     -971.572      20.694      24.293
  H     -970.915      19.099      24.731
  H     -971.381      19.448      23.035
  P     -968.558      19.280      23.207
  C     -966.619      20.713      24.115
  O     -967.224      20.144      22.964
  C     -965.359      21.486      23.732
  O     -964.436      20.580      23.078
  C     -965.626      22.651      22.768
  O     -964.779      23.747      23.108
  C     -965.214      22.094      21.416
  O     -964.837      23.115      20.496
  C     -964.078      21.140      21.804
  N     -960.620      18.344      19.303
  C     -960.506      19.225      20.319
  N     -961.482      19.917      20.936
  C     -962.694      19.585      20.438
  C     -962.967      18.708      19.404
  C     -961.856      18.075      18.820
  N     -961.962      17.197      17.766
  N     -964.321      18.671      19.151
  C     -964.861      19.502      20.026
  N     -963.910      20.088      20.816
  O     -968.971      18.406      22.068
  O     -968.226      18.515      24.571
  H     -964.451      22.684      19.704
  H     -968.122      19.140      25.314
  H     -959.487      19.406      20.673
  H     -965.920      19.715      20.122
  H     -963.118      21.657      21.901
  H     -966.052      21.537      20.980
  H     -966.668      22.966      22.780
  H     -964.869      21.843      24.648
  H     -966.360      19.926      24.832
  H     -961.117      16.772      17.409
  H     -962.882      16.966      17.396
  H     -967.347      21.385      24.586
  P     -965.405      25.217      23.081
  C     -963.226      26.350      22.241
  O     -964.214      26.289      23.275
  O     -966.606      25.449      23.930
  O     -965.768      25.416      21.519
  H     -966.599      25.919      21.457
  H     -962.498      27.094      22.487
  H     -963.696      26.604      21.314
  H     -962.746      25.398      22.149

 6  7  8  9  10  11  12  13  14  15  25  28  32  33  34  35 0
 6-311+G(2d,p)
 ****
 36  39  40 0
 6-311+G(2d,p)
 ****
 1  2  3  4  5  16  17  18  19  20  21  22  23  24 0
 3-21G
 ****
 26  27  29  30  31  37  38  41  42  43  44  45  46  47 0
 3-21G
 ****
 48 0
 3-21G
 ****


