%nproc=1
%NoSave
%Mem=1900MB
#P OB98/GEN NMR

erre ene a

0 1
  C      139.172      48.137    -241.988
  O      138.550      47.722    -243.195
  P      138.691      46.180    -243.615
  C      136.782      45.907    -241.892
  O      137.939      45.328    -242.478
  C      135.688      44.863    -241.705
  O      134.650      45.415    -240.847
  C      135.014      44.411    -243.011
  O      134.849      42.985    -242.988
  C      133.632      45.036    -242.934
  O      132.676      44.315    -243.701
  C      133.396      45.001    -241.423
  N      128.480      46.038    -241.930
  C      129.202      44.949    -242.374
  N      128.525      44.036    -243.104
  N      130.472      44.768    -242.129
  C      131.013      45.745    -241.359
  C      130.400      46.869    -240.852
  C      129.009      47.084    -241.183
  O      128.337      48.073    -240.896
  N      131.272      47.618    -240.103
  C      132.411      46.954    -240.157
  N      132.316      45.837    -240.950
  O      140.241      45.879    -243.353
  O      138.309      45.866    -245.020
  H      131.836      44.811    -243.650
  H      140.654      45.541    -244.171
  H      127.509      46.137    -242.163
  H      133.331      47.258    -239.674
  H      133.193      43.973    -241.091
  H      133.681      46.065    -243.309
  H      127.538      44.095    -243.299
  H      135.551      44.707    -243.918
  H      129.030      43.219    -243.419
  H      136.114      44.003    -241.172
  H      136.408      46.704    -242.544
  H      137.055      46.343    -240.925
  P      135.330      42.202    -244.306
  C      137.517      41.197    -243.311
  O      136.924      42.119    -244.204
  O      135.074      43.258    -245.478
  O      134.619      40.909    -244.533
  H      134.956      42.801    -246.332
  H      136.783      40.507    -242.885
  H      137.994      41.748    -242.498
  H      138.276      40.620    -243.847
  H      138.996      49.182    -241.837
  H      140.225      47.958    -242.050
  H      138.764      47.584    -241.168

 3  4  5  6  7  8  9  10  11  12  23  26  30  31  33  0
 6-311+G(2d,p)
 ****
 35  36  37  38 0
 6-311+G(2d,p)
 ****
 1  2  13  14  15  16  17  18  19  20  21  22  24  25  27  28  29 0
 3-21G
 ****
 32  34  39  40  41  42  43  44  45  46  47  48  49 0
 3-21G
 ****


