%nproc=1
%NoSave
%Mem=1900MB
#P OB98/GEN NMR

erre ene a

0 1
  C      -82.143     135.101    -100.564
  O      -82.536     133.781    -100.879
  H      -82.738     135.794    -101.164
  H      -81.087     135.253    -100.798
  H      -82.325     135.311     -99.506
  P      -81.767     132.562    -100.182
  C      -82.593     132.418     -97.740
  O      -82.763     131.958     -99.077
  C      -83.176     131.400     -96.754
  O      -82.749     131.781     -95.423
  C      -84.712     131.372     -96.778
  O      -85.245     130.064     -96.970
  C      -85.095     132.109     -95.501
  O      -86.354     131.755     -94.970
  C      -83.908     131.833     -94.571
  N      -83.732     132.834     -93.522
  C      -84.207     132.518     -92.253
  O      -84.741     131.455     -91.940
  N      -84.040     133.490     -91.300
  C      -83.469     134.712     -91.489
  O      -83.341     135.539     -90.595
  C      -83.007     134.996     -92.856
  C      -83.159     134.059     -93.795
  O      -80.393     132.862     -99.685
  O      -81.747     131.422    -101.307
  H      -86.424     132.152     -94.077
  H      -80.864     131.385    -101.718
  H      -84.371     133.267     -90.374
  H      -82.557     135.960     -93.044
  H      -82.827     134.235     -94.814
  H      -84.018     130.862     -94.088
  H      -85.132     133.183     -95.723
  H      -85.099     131.930     -97.638
  H      -82.749     130.414     -96.970
  H      -83.109     133.377     -97.646
  H      -81.527     132.564     -97.535
  P      -85.611     129.432     -98.389
  C      -83.440     128.088     -98.984
  O      -84.792     128.067     -98.553
  O      -85.588     130.377     -99.541
  O      -87.135     128.939     -98.193
  H      -87.573     129.038     -99.062
  H      -83.065     127.087     -99.032
  H      -82.854     128.655     -98.291
  H      -83.382     128.538     -99.953

 6  7  8  9  10  11  12  13  14  15  16  26  31  32  33  34  35 0
 6-311+G(2d,p)
 ****
 36  37 0
 6-311+G(2d,p)
 ****
 1  2  3  4  5  17  18  19  20  21  22  23  24  25 0
 3-21G
 ****
 27  28  29  30  38  39  40  41  42  43  44  45 0
 3-21G
 ****


