%nproc=1
%NoSave
%Mem=1900MB
#P OB98/GEN NMR

erre ene a

0 1
  C     -116.772    -528.581    -899.398
  O     -118.105    -528.602    -898.948
  P     -118.653    -529.789    -898.018
  C     -120.988    -529.250    -898.988
  O     -120.218    -529.497    -897.808
  C     -122.425    -529.778    -898.808
  O     -122.419    -531.175    -898.518
  C     -123.192    -529.104    -897.678
  O     -123.624    -527.804    -898.058
  C     -124.312    -530.113    -897.448
  O     -125.381    -529.926    -898.398
  C     -123.581    -531.460    -897.708
  N     -123.241    -532.140    -896.478
  C     -124.165    -533.108    -896.018
  O     -125.209    -533.300    -896.658
  N     -123.904    -533.800    -894.858
  C     -122.826    -533.520    -894.188
  N     -122.612    -534.223    -893.038
  C     -121.832    -532.501    -894.598
  C     -122.111    -531.855    -895.738
  O     -117.875    -530.040    -896.768
  O     -118.669    -531.054    -899.018
  H     -124.988    -530.133    -899.278
  H     -117.741    -531.391    -899.178
  H     -120.959    -532.303    -894.018
  H     -121.431    -531.084    -896.138
  H     -124.226    -532.133    -898.318
  H     -124.724    -530.029    -896.438
  H     -122.550    -529.046    -896.788
  H     -122.950    -529.622    -899.768
  H     -123.335    -534.884    -892.778
  H     -120.514    -529.787    -899.808
  H     -121.827    -534.065    -892.418
  H     -120.966    -528.182    -899.208
  P     -122.776    -526.521    -897.628
  C     -125.012    -525.488    -896.878
  O     -123.777    -525.272    -897.568
  O     -121.529    -526.284    -898.418
  O     -122.441    -526.787    -896.078
  H     -121.516    -526.559    -895.918
  H     -125.447    -524.509    -896.638
  H     -124.860    -526.067    -895.968
  H     -125.712    -526.023    -897.548
  H     -116.613    -527.711    -900.000
  H     -116.578    -529.458    -899.979
  H     -116.112    -528.558    -898.556

 3  4  5  6  7  8  9  10  11  12  13  23  27  28  29  30  32 0
 6-311+G(2d,p)
 ****
 34  35 0
 6-311+G(2d,p)
 ****
 1  2  14  15  16  17  18  19  20  21  22  24  25  26 0
 3-21G
 ****
 31  33  36  37  38  39  40  41  42  43  44  45  46 0
 3-21G
 ****


