%nproc=1
%NoSave
%Mem=1900MB
#P OB98/GEN NMR

erre ene a

0 1
  C      204.798    -308.553     -17.757
  O      203.751    -309.170     -17.034
  P      204.068    -309.958     -15.676
  C      205.045    -312.296     -15.081
  O      204.690    -311.377     -16.093
  C      205.436    -313.651     -15.683
  O      206.425    -313.412     -16.717
  C      206.089    -314.624     -14.706
  O      206.018    -315.941     -15.254
  C      207.526    -314.149     -14.708
  O      208.425    -315.150     -14.232
  C      207.735    -313.712     -16.182
  N      208.615    -312.535     -16.281
  C      209.925    -312.690     -15.846
  O      210.384    -313.770     -15.468
  N      210.673    -311.548     -15.779
  C      210.220    -310.291     -16.055
  O      210.789    -309.268     -15.701
  C      208.914    -310.222     -16.731
  C      208.169    -311.328     -16.788
  O      202.610    -310.324     -15.130
  O      204.859    -309.189     -14.676
  H      208.252    -315.960     -14.764
  H      202.321    -309.667     -14.469
  H      211.576    -311.639     -15.329
  H      208.581    -309.260     -17.101
  H      207.177    -311.297     -17.232
  H      208.179    -314.519     -16.777
  H      207.618    -313.280     -14.042
  H      205.656    -314.606     -13.700
  H      204.560    -314.108     -16.156
  H      204.208    -312.410     -14.388
  H      205.887    -311.910     -14.496
  P      206.020    -317.178     -14.235
  C      207.826    -318.670     -13.186
  O      207.562    -317.485     -13.903
  O      205.202    -318.357     -14.636
  O      205.490    -316.525     -12.869
  H      205.172    -317.224     -12.270
  H      208.818    -319.036     -13.460
  H      207.087    -319.451     -13.406
  H      207.813    -318.455     -12.115
  H      204.398    -308.079     -18.629
  H      205.514    -309.293     -18.050
  H      205.274    -307.820     -17.139

 3  4  5  6  7  8  9  10  11  12  13  23  28  29  30  31  32 0
 6-311+G(2d,p)
 ****
 33  34 0
 6-311+G(2d,p)
 ****
 1  2  14  15  16  17  18  19  20  21  22  24  25  26  27 0
 3-21G
 ****
 35  36  37  38  39  40  41  42  43  44  45 0
 3-21G
 ****


