%nproc=1
%NoSave
%Mem=1900MB
#P OB98/GEN NMR

erre ene a

0 1
  C     -146.472    -368.012    -399.414
  O     -145.575    -366.940    -399.620
  H     -146.072    -368.902    -399.904
  H     -147.444    -367.772    -399.858
  H     -146.591    -368.215    -398.346
  P     -145.890    -365.575    -398.828
  C     -143.663    -365.373    -397.452
  O     -145.049    -365.660    -397.465
  C     -143.111    -365.430    -396.027
  O     -143.535    -364.241    -395.315
  C     -143.588    -366.650    -395.230
  O     -142.528    -367.073    -394.372
  C     -144.723    -366.089    -394.388
  O     -144.967    -366.879    -393.226
  C     -144.224    -364.664    -394.120
  N     -145.304    -363.748    -393.769
  C     -145.906    -363.933    -392.518
  O     -145.528    -364.842    -391.776
  N     -146.943    -363.117    -392.152
  C     -147.393    -362.234    -392.991
  N     -148.445    -361.471    -392.580
  C     -146.818    -362.029    -394.336
  C     -145.783    -362.806    -394.653
  O     -147.401    -365.811    -398.356
  O     -145.680    -364.332    -399.629
  H     -144.150    -366.903    -392.687
  H     -147.558    -366.697    -397.996
  H     -147.236    -361.287    -395.001
  H     -145.296    -362.723    -395.614
  H     -143.491    -364.661    -393.297
  H     -145.648    -366.062    -394.976
  H     -143.902    -367.475    -395.874
  H     -142.015    -365.400    -396.075
  H     -148.823    -361.657    -391.657
  H     -143.474    -364.381    -397.873
  H     -148.907    -360.793    -393.165
  H     -143.157    -366.109    -398.086
  P     -141.874    -368.520    -394.582
  C     -139.563    -368.226    -393.454
  O     -140.282    -368.372    -394.675
  O     -142.498    -369.367    -395.638
  O     -142.067    -369.204    -393.140
  H     -142.323    -370.135    -393.286
  H     -138.518    -368.138    -393.664
  H     -139.732    -369.083    -392.836
  H     -139.900    -367.347    -392.945

 6  7  8  9  10  11  12  13  14  15  16  26  30  31  32  33  35 0
 6-311+G(2d,p)
 ****
 37  38 0
 6-311+G(2d,p)
 ****
 1  2  3  4  5  17  18  19  20  21  22  23  24  25 0
 3-21G
 ****
 27  28  29  34  36  39  40  41  42  43  44  45  46 0
 3-21G
 ****


