%nproc=1
%NoSave
%Mem=1900MB
#P OB98/GEN NMR

erre ene a

0 1
  C     -157.641     -70.241    -290.184
  O     -157.167     -69.369    -289.178
  H     -158.041     -71.156    -289.738
  H     -158.439     -69.739    -290.736
  H     -156.831     -70.487    -290.878
  P     -156.058     -69.966    -288.183
  C     -154.203     -68.221    -288.673
  O     -154.630     -69.569    -288.805
  C     -153.358     -67.818    -289.874
  O     -154.120     -67.964    -291.091
  C     -152.885     -66.369    -289.865
  O     -151.770     -66.178    -289.009
  C     -152.508     -66.187    -291.328
  O     -151.203     -66.746    -291.566
  C     -153.578     -67.020    -292.053
  N     -155.651     -65.050    -296.319
  C     -154.543     -65.802    -296.119
  N     -154.048     -66.278    -294.961
  C     -154.827     -65.923    -293.925
  C     -155.982     -65.160    -293.974
  C     -156.392     -64.708    -295.241
  N     -157.511     -63.925    -295.431
  N     -156.523     -65.011    -292.715
  C     -155.709     -65.671    -291.915
  N     -154.665     -66.234    -292.599
  O     -156.142     -71.548    -288.435
  O     -156.245     -69.630    -286.741
  H     -150.567     -66.188    -291.081
  H     -155.981     -72.010    -287.590
  H     -153.981     -66.059    -297.014
  H     -155.840     -65.768    -290.845
  H     -153.141     -67.611    -292.867
  H     -152.477     -65.139    -291.638
  H     -153.708     -65.685    -289.615
  H     -152.502     -68.505    -289.932
  H     -153.604     -68.116    -287.761
  H     -157.856     -63.800    -296.368
  H     -158.063     -63.681    -294.618
  H     -155.087     -67.577    -288.594
  P     -151.760     -64.865    -288.082
  C     -151.229     -65.947    -285.784
  O     -152.218     -65.364    -286.626
  O     -153.034     -64.044    -288.607
  O     -150.513     -64.054    -288.144
  H     -152.916     -63.095    -288.422
  H     -151.675     -66.230    -284.853
  H     -150.449     -65.236    -285.605
  H     -150.820     -66.813    -286.261

 6  7  8  9  10  11  12  13  14  15  25  28  32  33  34  35 0
 6-311+G(2d,p)
 ****
 36  39  40 0
 6-311+G(2d,p)
 ****
 1  2  3  4  5  16  17  18  19  20  21  22  23  24 0
 3-21G
 ****
 26  27  29  30  31  37  38  41  42  43  44  45  46  47  48 0
 3-21G
 ****


