%nproc=1
%NoSave
%Mem=1900MB
#P OB98/GEN NMR

erre ene a

0 1
  C     -124.027    -684.991     680.953
  O     -122.618    -685.223     680.822
  P     -121.885    -686.087     681.961
  C     -122.216    -688.447     680.910
  O     -122.526    -687.558     681.975
  C     -121.835    -689.829     681.459
  O     -122.973    -690.507     682.032
  C     -121.297    -690.775     680.400
  O     -119.915    -690.540     680.144
  C     -121.480    -692.117     681.087
  O     -120.412    -692.341     682.029
  C     -122.806    -691.927     681.822
  N     -126.366    -695.607     681.611
  C     -125.318    -695.412     682.442
  N     -124.405    -694.419     682.423
  C     -124.661    -693.560     681.425
  C     -125.688    -693.627     680.492
  C     -126.574    -694.712     680.609
  N     -127.637    -694.912     679.762
  N     -125.617    -692.577     679.615
  C     -124.581    -691.868     680.010
  N     -123.965    -692.427     681.095
  O     -122.432    -685.435     683.317
  O     -120.396    -686.038     681.889
  H     -119.595    -692.483     681.502
  H     -121.740    -685.462     684.001
  H     -125.198    -696.155     683.234
  H     -124.244    -690.950     679.546
  H     -122.814    -692.411     682.811
  H     -121.458    -692.959     680.384
  H     -121.905    -690.729     679.483
  H     -121.083    -689.684     682.246
  H     -121.393    -688.042     680.316
  H     -128.245    -695.695     679.926
  H     -127.804    -694.227     679.027
  H     -123.081    -688.514     680.247
  P     -119.548    -689.726     678.804
  C     -118.707    -687.453     679.749
  O     -119.769    -688.178     679.161
  O     -120.766    -690.074     677.823
  O     -118.225    -690.085     678.208
  H     -120.465    -690.061     676.893
  H     -118.904    -686.382     679.644
  H     -117.759    -687.680     679.258
  H     -118.633    -687.699     680.814
  H     -124.370    -684.405     680.126
  H     -124.219    -684.466     681.866
  H     -124.543    -685.928     680.965

 3  4  5  6  7  8  9  10  11  12  22  25  29  30  31  32 0
 6-311+G(2d,p)
 ****
 33  36  37 0
 6-311+G(2d,p)
 ****
 1  2  13  14  15  16  17  18  19  20  21  23  24  26 0
 3-21G
 ****
 27  28  34  35  38  39  40  41  42  43  44  45  46  47  48 0
 3-21G
 ****


