%nproc=1
%NoSave
%Mem=1900MB
#P OB98/GEN NMR

erre ene a

0 1
  C      220.447    -241.237     609.203
  O      220.747    -241.932     610.391
  H      219.705    -241.808     608.635
  H      221.346    -241.134     608.591
  H      220.033    -240.249     609.425
  P      221.696    -241.199     611.458
  C      219.730    -240.773     613.105
  O      220.755    -240.200     612.302
  C      218.809    -239.674     613.643
  O      218.354    -238.852     612.542
  C      217.572    -240.220     614.367
  O      217.304    -239.379     615.496
  C      216.462    -240.068     613.342
  O      215.169    -239.972     613.940
  C      216.917    -238.813     612.579
  N      216.339    -238.773     611.236
  C      214.945    -238.695     611.156
  O      214.262    -238.675     612.175
  N      214.350    -238.693     609.917
  C      215.086    -238.852     608.855
  N      214.435    -238.893     607.663
  C      216.548    -239.018     608.898
  C      217.110    -238.958     610.112
  O      222.568    -240.202     610.564
  O      222.541    -242.104     612.293
  H      215.044    -240.758     614.524
  H      223.458    -240.076     610.936
  H      217.116    -239.176     607.991
  H      218.177    -239.067     610.243
  H      216.620    -237.908     613.119
  H      216.456    -240.939     612.682
  H      217.689    -241.252     614.707
  H      219.397    -239.026     614.305
  H      213.420    -238.796     607.664
  H      220.190    -241.299     613.956
  H      214.895    -239.053     606.776
  H      219.156    -241.492     612.508
  P      218.114    -239.688     616.845
  C      219.766    -237.697     616.594
  O      219.596    -239.105     616.680
  O      218.317    -241.270     616.794
  O      217.400    -239.259     618.093
  H      217.752    -241.705     617.458
  H      220.806    -237.469     616.487
  H      219.390    -237.237     617.484
  H      219.230    -237.324     615.746

 6  7  8  9  10  11  12  13  14  15  16  26  30  31  32  33  35 0
 6-311+G(2d,p)
 ****
 37  38 0
 6-311+G(2d,p)
 ****
 1  2  3  4  5  17  18  19  20  21  22  23  24  25 0
 3-21G
 ****
 27  28  29  34  36  39  40  41  42  43  44  45  46 0
 3-21G
 ****


