%nproc=1
%NoSave
%Mem=1900MB
#P OB98/GEN NMR

erre ene a

0 1
  C     -897.070      39.952    -898.980
  O     -898.050      39.586    -898.020
  H     -896.830      41.011    -898.850
  H     -897.480      39.819    -900.000
  H     -896.170      39.357    -898.860
  P     -898.560      38.069    -898.060
  C     -897.400      37.501    -895.810
  O     -897.500      37.209    -897.180
  C     -896.310      36.655    -895.140
  O     -896.850      35.310    -894.890
  C     -895.050      36.497    -896.010
  O     -893.900      36.492    -895.160
  C     -895.210      35.089    -896.610
  O     -893.960      34.535    -897.000
  C     -895.900      34.384    -895.440
  N     -895.240      29.409    -896.020
  C     -894.390      30.353    -895.500
  N     -893.170      29.955    -895.060
  N     -894.700      31.631    -895.410
  C     -895.970      31.904    -895.850
  C     -896.890      31.067    -896.390
  C     -896.520      29.652    -896.500
  O     -897.220      28.739    -896.970
  N     -898.040      31.707    -896.760
  C     -897.810      32.981    -896.440
  N     -896.560      33.144    -895.890
  O     -898.250      37.606    -899.560
  O     -900.000      37.863    -897.690
  H     -894.160      33.702    -897.480
  H     -898.900      36.932    -899.870
  H     -894.950      28.444    -896.070
  H     -898.490      33.830    -896.580
  H     -895.190      34.093    -894.630
  H     -895.870      35.133    -897.490
  H     -892.880      28.991    -895.070
  H     -894.950      37.257    -896.780
  H     -892.550      30.665    -894.670
  H     -896.060      37.065    -894.160
  H     -898.380      37.290    -895.330
  H     -897.160      38.572    -895.660
  P     -893.110      37.886    -894.990
  C     -893.740      38.334    -892.490
  O     -893.830      38.755    -893.850
  O     -893.460      38.660    -896.350
  O     -891.630      37.732    -894.820
  H     -892.660      38.701    -896.910
  H     -894.272      39.022    -891.868
  H     -892.713      38.305    -892.193
  H     -894.168      37.358    -892.390

 6  7  8  9  10  11  12  13  14  15  26  29  33  34 0
 6-311+G(2d,p)
 ****
 36  38  39  40  41 0
 6-311+G(2d,p)
 ****
 1  2  3  4  5  16  17  18  19  20  21  22  23  24  25 0
 3-21G
 ****
 27  28  30  31  32  35  37  42  43  44  45  46  47 0
 3-21G
 ****
 48  49 0
 3-21G
 ****


