%nproc=1
%NoSave
%Mem=1900MB
#P OB98/GEN NMR

erre ene a

0 1
  C      -13.774      40.539    -128.136
  O      -14.945      40.259    -128.883
  P      -15.608      38.806    -128.705
  C      -14.632      37.571    -130.771
  O      -15.765      38.197    -130.181
  C      -14.830      37.364    -132.274
  O      -15.962      36.486    -132.481
  C      -15.082      38.655    -133.054
  O      -14.431      38.535    -134.320
  C      -16.582      38.651    -133.270
  O      -16.955      39.428    -134.406
  C      -16.863      37.144    -133.395
  N      -18.255      36.816    -133.104
  C      -19.029      36.347    -134.169
  O      -18.552      36.300    -135.303
  N      -20.332      35.990    -133.934
  C      -20.850      36.191    -132.762
  N      -22.145      35.820    -132.577
  C      -20.104      36.800    -131.644
  C      -18.819      37.065    -131.877
  O      -17.112      39.149    -128.285
  O      -14.926      37.930    -127.707
  H      -17.937      39.449    -134.453
  H      -17.471      38.466    -127.688
  H      -20.593      36.979    -130.698
  H      -18.188      37.491    -131.109
  H      -16.626      36.791    -134.407
  H      -17.087      39.063    -132.388
  H      -14.716      39.545    -132.534
  H      -13.945      36.850    -132.668
  H      -22.640      35.418    -133.363
  H      -14.485      36.592    -130.308
  H      -22.632      35.939    -131.699
  H      -13.741      38.177    -130.578
  P      -13.226      39.545    -134.636
  C      -14.478      40.581    -136.623
  O      -13.342      39.850    -136.206
  O      -11.963      38.556    -134.595
  O      -13.025      40.713    -133.731
  H      -11.143      39.067    -134.713
  H      -14.362      40.834    -137.679
  H      -14.573      41.504    -136.046
  H      -15.377      39.970    -136.505
  H      -13.444      41.534    -128.350
  H      -13.006      39.843    -128.402
  H      -13.988      40.452    -127.091

 3  4  5  6  7  8  9  10  11  12  13  21  23  27  28  29  30  32 0
 6-311+G(2d,p)
 ****
 34  35 0
 6-311+G(2d,p)
 ****
 1  2  14  15  16  17  18  19  20  22  24  25  26 0
 3-21G
 ****
 31  33  36  37  38  39  40  41  42  43  44  45  46 0
 3-21G
 ****


