%nproc=1
%NoSave
%Mem=1900MB
#P OB98/GEN NMR

erre ene a

0 1
  C     -395.922    -210.826     333.317
  O     -394.616    -211.149     332.875
  P     -393.457    -210.044     332.929
  C     -392.806    -209.953     330.411
  O     -392.456    -210.357     331.717
  C     -392.531    -211.069     329.391
  O     -391.128    -211.419     329.485
  C     -393.303    -212.363     329.638
  O     -393.288    -213.134     328.436
  C     -392.441    -213.041     330.685
  O     -392.686    -214.443     330.759
  C     -391.010    -212.634     330.256
  N     -390.140    -212.416     331.425
  C     -389.794    -213.538     332.174
  O     -390.122    -214.681     331.853
  N     -389.135    -213.299     333.347
  C     -388.840    -212.062     333.848
  O     -388.539    -211.852     335.016
  C     -389.010    -210.941     332.910
  C     -389.667    -211.160     331.767
  O     -392.628    -210.472     334.229
  O     -393.933    -208.638     333.012
  H     -392.079    -214.799     331.450
  H     -392.913    -209.948     335.001
  H     -389.012    -214.098     333.956
  H     -388.650    -209.965     333.209
  H     -389.853    -210.341     331.082
  H     -390.549    -213.408     329.631
  H     -392.677    -212.612     331.670
  H     -394.328    -212.215     329.981
  H     -392.721    -210.694     328.380
  H     -392.244    -209.046     330.152
  H     -393.868    -209.684     330.368
  P     -394.688    -213.702     327.885
  C     -393.850    -216.116     327.628
  O     -394.333    -214.962     326.966
  O     -395.607    -212.697     327.280
  O     -395.332    -214.384     329.188
  H     -396.291    -214.501     329.060
  H     -394.132    -216.997     327.051
  H     -394.265    -216.202     328.638
  H     -392.758    -216.063     327.688
  H     -396.557    -211.680     333.208
  H     -396.307    -210.018     332.731
  H     -395.889    -210.536     334.346

 3  4  5  6  7  8  9  10  11  12  13  23  28  29  30  31  32 0
 6-311+G(2d,p)
 ****
 33  34 0
 6-311+G(2d,p)
 ****
 1  2  14  15  16  17  18  19  20  21  22  24  25  26  27 0
 3-21G
 ****
 35  36  37  38  39  40  41  42  43  44  45 0
 3-21G
 ****


