%nproc=1
%NoSave
%Mem=1900MB
#P OB98/GEN NMR

erre ene a

0 1
  C     1075.833    -893.230     363.317
  O     1076.281    -894.030     362.231
  H     1075.713    -893.860     364.199
  H     1074.842    -892.800     363.068
  H     1076.526    -892.420     363.531
  P     1076.949    -893.310     360.972
  C     1078.746    -895.130     361.320
  O     1078.068    -894.290     360.364
  C     1078.869    -896.560     360.781
  O     1079.342    -896.540     359.407
  C     1079.904    -897.400     361.579
  O     1079.382    -898.030     362.747
  C     1080.346    -898.420     360.520
  O     1079.489    -899.590     360.548
  C     1080.207    -897.660     359.207
  N     1083.348    -897.250     355.193
  C     1082.152    -897.990     355.298
  N     1081.824    -898.720     354.220
  N     1081.430    -897.990     356.401
  C     1081.968    -897.300     357.403
  C     1083.123    -896.560     357.414
  C     1083.915    -896.480     356.225
  O     1084.953    -895.850     356.028
  N     1083.385    -896.020     358.665
  C     1082.427    -896.500     359.418
  N     1081.491    -897.220     358.678
  O     1077.829    -892.140     361.632
  O     1075.983    -892.750     359.966
  H     1079.584    -900.000     361.420
  H     1077.862    -891.390     361.023
  H     1083.860    -897.260     354.316
  H     1082.311    -896.330     360.479
  H     1079.749    -898.300     358.430
  H     1081.351    -898.760     360.724
  H     1082.386    -898.810     353.390
  H     1080.790    -896.770     361.859
  H     1081.073    -899.400     354.332
  H     1077.903    -897.060     360.783
  H     1078.143    -895.110     362.223
  H     1079.745    -894.730     361.547
  P     1080.273    -898.260     364.010
  C     1078.252    -899.070     365.482
  O     1079.550    -899.330     364.971
  O     1080.143    -896.890     364.849
  O     1081.713    -898.630     363.746
  H     1080.916    -896.320     364.680
  H     1077.940    -899.889     366.096
  H     1077.566    -898.951     364.669
  H     1078.272    -898.174     366.066

 6  7  8  9  10  11  12  13  14  15  26  29  33  34 0
 6-311+G(2d,p)
 ****
 36  38  39  40  41 0
 6-311+G(2d,p)
 ****
 1  2  3  4  5  16  17  18  19  20  21  22  23  24  25 0
 3-21G
 ****
 27  28  30  31  32  35  37  42  43  44  45  46  47 0
 3-21G
 ****
 48  49 0
 3-21G
 ****


