%nproc=1
%NoSave
%Mem=1900MB
#P OB98/GEN NMR

erre ene a

0 1
  C     -896.720    -603.742    1411.418
  O     -897.300    -604.200    1410.199
  H     -895.640    -603.850    1411.349
  H     -897.090    -604.312    1412.250
  H     -896.940    -602.672    1411.562
  P     -898.870    -603.976    1409.981
  C     -899.120    -601.957    1408.343
  O     -899.060    -602.380    1409.714
  C     -897.850    -601.150    1407.977
  O     -896.670    -601.970    1408.324
  C     -897.750    -600.746    1406.523
  O     -897.010    -599.533    1406.435
  C     -896.920    -601.902    1405.966
  O     -896.460    -601.679    1404.649
  C     -895.890    -602.052    1407.096
  N     -895.090    -603.267    1407.077
  C     -893.830    -603.227    1406.450
  O     -893.380    -602.213    1405.892
  N     -893.150    -604.420    1406.440
  C     -893.530    -605.584    1406.998
  O     -892.840    -606.621    1406.968
  C     -894.860    -605.534    1407.625
  C     -895.570    -604.438    1407.656
  O     -899.780    -604.542    1411.021
  O     -899.140    -604.590    1408.529
  H     -899.560    -605.467    1408.627
  H     -896.080    -600.799    1404.599
  H     -892.260    -604.352    1405.978
  H     -895.180    -606.503    1408.071
  H     -896.550    -604.405    1408.127
  H     -895.190    -601.171    1407.092
  H     -897.540    -602.828    1405.907
  H     -898.740    -600.618    1406.035
  H     -897.800    -600.260    1408.677
  H     -900.000    -601.315    1408.244
  H     -899.200    -602.829    1407.715
  P     -897.710    -598.127    1405.981
  C     -897.150    -596.493    1407.947
  O     -898.100    -597.314    1407.316
  O     -898.800    -598.288    1404.989
  O     -896.460    -597.279    1405.367
  H     -896.840    -596.646    1404.717
  H     -897.589    -596.039    1408.811
  H     -896.829    -595.731    1407.267
  H     -896.309    -597.084    1408.243

 6  7  8  9  10  11  12  13  14  15  16  27  31  32  33  34  35 0
 6-311+G(2d,p)
 ****
 36  37 0
 6-311+G(2d,p)
 ****
 1  2  3  4  5  17  18  19  20  21  22  23  24  25 0
 3-21G
 ****
 26  28  29  30  38  39  40  41  42  43  44  45 0
 3-21G
 ****


