%nproc=1
%NoSave
%Mem=1900MB
#P OB98/GEN NMR

erre ene a

0 1
  C     -219.350     168.995    -179.855
  O     -220.582     169.211    -179.198
  H     -219.435     168.097    -180.475
  H     -218.556     168.842    -179.123
  H     -219.108     169.846    -180.498
  P     -220.669     170.488    -178.228
  C     -222.639     171.605    -179.497
  O     -222.197     170.994    -178.292
  C     -224.163     171.527    -179.605
  O     -224.527     170.232    -180.164
  C     -224.890     171.672    -178.261
  O     -226.092     172.422    -178.467
  C     -225.255     170.241    -177.910
  O     -226.355     170.172    -177.009
  C     -225.534     169.672    -179.297
  N     -228.278     165.560    -180.242
  C     -228.593     166.898    -180.370
  N     -229.834     167.192    -180.819
  N     -227.764     167.868    -180.084
  C     -226.553     167.432    -179.672
  C     -226.118     166.139    -179.488
  C     -227.052     165.074    -179.789
  O     -226.839     163.873    -179.670
  N     -224.827     166.113    -179.019
  C     -224.482     167.385    -178.921
  N     -225.495     168.221    -179.309
  O     -219.873     171.622    -179.029
  O     -220.133     170.287    -176.851
  H     -226.190     170.808    -176.284
  H     -219.451     172.251    -178.414
  H     -228.956     164.853    -180.463
  H     -223.523     167.750    -178.577
  H     -226.521     169.967    -179.679
  H     -224.398     169.740    -177.446
  H     -230.515     166.497    -181.092
  H     -224.288     172.154    -177.489
  H     -230.085     168.169    -180.935
  H     -224.501     172.283    -180.322
  H     -222.185     171.085    -180.348
  H     -222.321     172.652    -179.506
  P     -226.035     174.004    -178.211
  C     -227.801     174.533    -180.040
  O     -227.429     174.654    -178.678
  O     -225.001     174.508    -179.326
  O     -225.580     174.379    -176.840
  H     -224.165     174.767    -178.904
  H     -228.745     175.012    -180.196
  H     -227.879     173.497    -180.298
  H     -227.059     174.999    -180.655

 6  7  8  9  10  11  12  13  14  15  26  29  33  34 0
 6-311+G(2d,p)
 ****
 36  38  39  40  41 0
 6-311+G(2d,p)
 ****
 1  2  3  4  5  16  17  18  19  20  21  22  23  24  25 0
 3-21G
 ****
 27  28  30  31  32  35  37  42  43  44  45  46  47 0
 3-21G
 ****
 48  49 0
 3-21G
 ****


