%nproc=1
%NoSave
%Mem=1900MB
#P OB98/GEN NMR

erre ene a

0 1
  C        5.122    -225.028      86.344
  O        4.627    -224.262      87.422
  H        4.652    -224.678      85.421
  H        4.870    -226.082      86.485
  H        6.204    -224.914      86.248
  P        5.290    -224.447      88.868
  C        3.225    -225.647      89.848
  O        4.605    -225.735      89.530
  C        2.681    -227.009      90.294
  O        3.567    -227.549      91.322
  C        1.265    -226.956      90.901
  O        0.639    -228.215      90.615
  C        1.591    -226.823      92.377
  O        0.471    -227.023      93.200
  C        2.741    -227.836      92.471
  N        3.527    -227.778      93.697
  C        3.015    -228.413      94.824
  O        1.947    -229.022      94.859
  N        3.783    -228.325      95.956
  C        4.987    -227.695      96.063
  O        5.645    -227.677      97.095
  C        5.472    -227.037      94.841
  C        4.736    -227.112      93.730
  O        5.314    -223.230      89.731
  O        6.771    -224.964      88.540
  H        7.403    -224.226      88.633
  H        0.706    -226.787      94.124
  H        3.429    -228.782      96.781
  H        6.420    -226.518      94.894
  H        5.073    -226.645      92.811
  H        2.354    -228.852      92.341
  H        1.943    -225.812      92.592
  H        0.655    -226.145      90.496
  H        2.721    -227.701      89.444
  H        2.689    -225.310      88.954
  H        3.086    -224.908      90.644
  P       -0.467    -228.411      89.468
  C       -2.334    -228.320      91.260
  O       -1.860    -227.825      90.013
  O       -0.565    -229.810      88.955
  O       -0.053    -227.397      88.302
  H       -0.387    -227.727      87.448
  H       -3.264    -227.848      91.501
  H       -1.617    -228.106      92.025
  H       -2.478    -229.378      91.192

 6  7  8  9  10  11  12  13  14  15  16  27  31  32  33  34  35 0
 6-311+G(2d,p)
 ****
 36  37 0
 6-311+G(2d,p)
 ****
 1  2  3  4  5  17  18  19  20  21  22  23  24  25 0
 3-21G
 ****
 26  28  29  30  38  39  40  41  42  43  44  45 0
 3-21G
 ****


