%nproc=1
%NoSave
%Mem=1900MB
#P OB98/GEN NMR

erre ene a

0 1
  C       81.980      39.980      59.256
  O       83.028      39.149      58.797
  H       81.204      40.024      58.488
  H       82.357      40.989      59.438
  H       81.547      39.573      60.174
  P       84.253      38.922      59.806
  C       85.266      41.101      58.793
  O       84.963      40.354      59.962
  C       85.585      42.555      59.162
  O       86.666      42.560      60.140
  C       86.055      43.404      57.969
  O       85.660      44.769      58.199
  C       87.564      43.294      58.087
  O       88.193      44.297      57.325
  C       87.712      43.392      59.601
  N       91.909      44.816      62.124
  C       90.742      45.451      61.884
  N       89.664      44.998      61.209
  C       89.870      43.739      60.783
  C       91.006      42.966      60.945
  C       92.068      43.558      61.650
  N       93.269      42.925      61.877
  N       90.845      41.735      60.339
  C       89.631      41.765      59.825
  N       89.006      42.954      60.070
  O       85.294      38.074      58.934
  O       83.916      38.246      61.091
  H       89.168      44.224      57.382
  H       85.153      37.121      59.084
  H       90.660      46.456      62.288
  H       89.163      40.966      59.265
  H       87.555      44.414      59.970
  H       87.918      42.328      57.716
  H       85.658      43.064      57.010
  H       84.711      43.002      59.652
  H       84.401      41.068      58.124
  H       86.130      40.656      58.290
  H       93.990      43.429      62.366
  H       93.418      42.000      61.499
  P       84.538      45.426      57.256
  C       86.262      46.259      55.483
  O       85.068      45.538      55.745
  O       84.553      46.956      57.736
  O       83.163      44.855      57.403
  H       83.639      47.271      57.858
  H       86.470      46.235      54.434
  H       87.074      45.812      56.018
  H       86.143      47.274      55.800

 6  7  8  9  10  11  12  13  14  15  25  28  32  33  34  35 0
 6-311+G(2d,p)
 ****
 36  37  40 0
 6-311+G(2d,p)
 ****
 1  2  3  4  5  16  17  18  19  20  21  22  23  24 0
 3-21G
 ****
 26  27  29  30  31  38  39 41  42  43  44  45  46  47  48 0
 3-21G
 ****


