%nproc=1
%NoSave
%Mem=1900MB
#P OB98/GEN NMR

erre ene a

0 1
  C      -75.001    -127.294    -557.007
  O      -74.635    -128.427    -556.243
  H      -75.600    -127.600    -557.868
  H      -75.596    -126.623    -556.381
  H      -74.109    -126.759    -557.345
  P      -73.767    -129.543    -557.001
  C      -75.792    -130.027    -558.540
  O      -74.408    -129.713    -558.466
  C      -76.147    -130.498    -559.947
  O      -76.180    -129.335    -560.821
  C      -75.157    -131.512    -560.542
  O      -75.854    -132.653    -561.063
  C      -74.510    -130.769    -561.697
  O      -74.200    -131.614    -562.798
  C      -75.564    -129.723    -562.055
  N      -73.376    -128.156    -566.389
  C      -74.175    -129.214    -566.124
  N      -74.806    -129.520    -564.966
  C      -74.569    -128.582    -564.029
  C      -73.791    -127.439    -564.164
  C      -73.162    -127.253    -565.406
  N      -72.299    -126.207    -565.659
  N      -73.779    -126.720    -562.981
  C      -74.497    -127.439    -562.139
  N      -74.979    -128.582    -562.727
  O      -74.175    -130.899    -556.250
  O      -72.292    -129.316    -556.960
  H      -73.807    -131.057    -563.492
  H      -73.377    -131.285    -555.840
  H      -74.326    -129.910    -566.946
  H      -74.658    -127.206    -561.092
  H      -76.347    -130.143    -562.702
  H      -73.583    -130.297    -561.346
  H      -74.409    -131.846    -559.817
  H      -77.163    -130.918    -559.931
  H      -76.385    -129.137    -558.298
  H      -71.801    -126.207    -566.531
  H      -72.052    -125.588    -564.892
  H      -76.018    -130.812    -557.806
  P      -75.495    -134.074    -560.398
  C      -73.865    -134.740    -562.310
  O      -74.037    -134.511    -560.910
  O      -76.495    -135.082    -561.133
  O      -75.681    -134.101    -558.912
  H      -77.034    -135.559    -560.472
  H      -72.851    -135.022    -562.503
  H      -74.095    -133.845    -562.849
  H      -74.520    -135.525    -562.626

 6  7  8  9  10  11  12  13  14  15  25  28  32  33  34  35 0
 6-311+G(2d,p)
 ****
 36  39  40 0
 6-311+G(2d,p)
 ****
 1  2  3  4  5  16  17  18  19  20  21  22  23  24 0
 3-21G
 ****
 26  27  29  30  31  37  38  41  42  43  44  45  46  47  48 0
 3-21G
 ****


