%nproc=1
%NoSave
%Mem=1900MB
#P OB98/GEN NMR

erre ene a

0 1
  C       70.913    -195.039      88.758
  O       69.700    -195.449      89.394
  P       68.654    -196.393      88.625
  C       67.322    -197.429      90.549
  O       67.299    -196.483      89.485
  C       67.715    -196.819      91.899
  O       66.918    -195.644      92.191
  C       67.576    -197.764      93.096
  O       68.625    -197.405      94.003
  C       66.221    -197.378      93.658
  O       66.043    -197.803      95.003
  C       66.237    -195.860      93.439
  N       64.894    -195.287      93.432
  C       64.765    -193.972      93.879
  O       65.745    -193.365      94.312
  N       63.522    -193.390      93.874
  C       62.485    -194.095      93.543
  N       61.276    -193.472      93.581
  C       62.564    -195.515      93.148
  C       63.788    -196.036      93.104
  O       69.204    -197.714      88.194
  O       68.220    -195.523      87.350
  H       66.658    -197.291      95.570
  H       67.997    -196.121      86.613
  H       61.670    -196.070      92.905
  H       63.952    -197.068      92.820
  H       66.820    -195.363      94.225
  H       65.428    -197.839      93.056
  H       67.639    -198.821      92.828
  H       68.755    -196.481      91.813
  H       61.262    -192.505      93.883
  H       68.034    -198.221      90.292
  H       60.400    -193.956      93.455
  H       66.335    -197.898      90.626
  P       69.831    -198.399      94.344
  C       71.534    -196.505      94.586
  O       70.874    -197.575      95.235
  O       70.432    -199.087      93.161
  O       69.214    -199.457      95.379
  H       69.788    -200.243      95.416
  H       72.046    -195.896      95.333
  H       70.818    -195.877      94.045
  H       72.272    -196.900      93.882
  H       71.474    -194.419      89.426
  H       70.682    -194.489      87.870
  H       71.491    -195.902      88.503

 3  4  5  6  7  8  9  10  11  12  13  23  27  28  29  30  32 0
 6-311+G(2d,p)
 ****
 34  35 0
 6-311+G(2d,p)
 ****
 1  2  14  15  16  17  18  19  20  21  22  24  25  26 0
 3-21G
 ****
 31  33  36  37  38  39  40  41  42  43  44  45  46 0
 3-21G
 ****


