%nproc=1
%NoSave
%Mem=1900MB
#P OB98/GEN NMR

erre ene a

0 1
  C     -361.819    -130.100    -726.716
  O     -363.008    -130.143    -727.481
  P     -364.401    -130.230    -726.686
  C     -365.717    -131.567    -728.503
  O     -365.158    -131.552    -727.201
  C     -366.636    -132.787    -728.657
  O     -365.876    -134.016    -728.557
  C     -367.710    -132.879    -727.580
  O     -368.787    -131.992    -727.847
  C     -368.101    -134.350    -727.658
  O     -369.055    -134.571    -728.703
  C     -366.749    -135.018    -727.984
  N     -366.142    -135.677    -726.839
  C     -366.254    -137.075    -726.809
  O     -366.836    -137.717    -727.673
  N     -365.690    -137.692    -725.728
  C     -365.115    -137.068    -724.649
  O     -364.680    -137.669    -723.675
  C     -365.056    -135.592    -724.725
  C     -365.566    -134.976    -725.794
  O     -365.275    -129.028    -727.305
  O     -364.276    -130.124    -725.205
  H     -369.852    -134.052    -728.479
  H     -365.838    -128.642    -726.613
  H     -365.744    -138.692    -725.694
  H     -364.580    -135.073    -723.894
  H     -365.545    -133.889    -725.855
  H     -366.894    -135.782    -728.779
  H     -368.552    -134.705    -726.723
  H     -367.268    -132.676    -726.599
  H     -367.097    -132.758    -729.664
  H     -364.903    -131.621    -729.243
  H     -366.276    -130.640    -728.672
  P     -369.158    -130.923    -726.696
  C     -371.339    -130.200    -727.946
  O     -370.744    -130.758    -726.780
  O     -368.555    -129.586    -727.339
  O     -368.590    -131.283    -725.370
  H     -368.613    -129.574    -728.319
  H     -370.812    -130.499    -728.856
  H     -371.349    -129.115    -727.870
  H     -372.367    -130.563    -728.010
  H     -360.975    -130.044    -727.371
  H     -361.748    -130.984    -726.118
  H     -361.835    -129.240    -726.080

 3  4  5  6  7  8  9  10  11  12  13  23  28  29  30  31  32 0
 6-311+G(2d,p)
 ****
 33  34 0
 6-311+G(2d,p)
 ****
 1  2  14  15  16  17  18  19  20  21  22  24  25  26 0
 3-21G
 ****
 27  35  36  37  38  39  40  41  42  43  44  45 0
 3-21G
 ****


