%nproc=1
%NoSave
%Mem=1900MB
#P OB98/GEN NMR

erre ene a

0 1
  C      263.658      66.741     275.626
  O      263.488      66.446     274.230
  P      263.557      64.963     273.627
  C      262.374      62.950     274.759
  O      262.215      64.184     274.063
  C      261.014      62.365     275.142
  O      260.334      63.244     276.077
  C      260.019      62.211     273.995
  O      260.352      61.130     273.137
  C      258.711      62.030     274.757
  O      258.518      60.661     275.154
  C      258.929      62.914     276.003
  N      258.106      64.110     276.001
  C      256.813      63.992     276.514
  O      256.385      62.889     276.870
  N      256.028      65.117     276.602
  C      256.464      66.239     276.120
  N      255.647      67.330     276.244
  C      257.767      66.383     275.441
  C      258.530      65.291     275.424
  O      264.815      64.224     273.963
  O      263.402      65.137     272.044
  H      263.825      64.392     271.584
  H      257.832      60.666     275.847
  H      258.071      67.330     275.015
  H      259.514      65.311     274.955
  H      258.718      62.339     276.914
  H      257.839      62.316     274.152
  H      259.982      63.146     273.420
  H      261.183      61.398     275.634
  H      254.767      67.199     276.727
  H      262.951      63.136     275.670
  H      255.899      68.255     275.924
  H      262.937      62.252     274.126
  P      259.957      61.277     271.588
  C      260.784      63.076     269.906
  O      261.134      62.084     270.859
  O      258.742      62.317     271.613
  O      259.558      59.997     270.927
  H      258.069      62.056     270.953
  H      261.589      63.819     269.875
  H      259.848      63.572     270.168
  H      260.700      62.614     268.920
  H      263.569      67.796     275.781
  H      264.626      66.414     275.944
  H      262.905      66.233     276.192

 3  4  5  6  7  8  9  10  11  12  13  24  27  28  29  30  32 0
 6-311+G(2d,p)
 ****
 34  35 0
 6-311+G(2d,p)
 ****
 1  2  14  15  16  17  18  19  20  21  22  23  25  26 0
 3-21G
 ****
 31  33  36  37  38  39  40  41  42  43  44  45  46 0
 3-21G
 ****


