%nproc=1
%NoSave
%Mem=1900MB
#P OB98/GEN NMR

erre ene a

0 1
  C      734.201      99.225     278.883
  O      734.225     100.563     278.421
  H      733.435      99.139     279.657
  H      735.168      98.960     279.315
  H      733.954      98.534     278.070
  P      735.133     100.924     277.150
  C      733.334     100.487     275.348
  O      734.566     100.062     275.915
  C      733.394     100.436     273.816
  O      733.698      99.063     273.405
  C      732.078     100.829     273.116
  O      732.430     101.414     271.856
  C      731.426      99.471     272.936
  O      730.315      99.514     272.068
  C      732.648      98.666     272.492
  N      732.486      97.217     272.511
  C      731.586      96.657     271.608
  O      730.914      97.292     270.788
  N      731.455      95.293     271.663
  C      732.130      94.453     272.505
  O      731.994      93.237     272.488
  C      733.062      95.106     273.436
  C      733.205      96.429     273.394
  O      736.607     100.831     277.360
  O      734.681     102.419     276.784
  H      735.347     103.050     277.111
  H      730.623      99.746     271.169
  H      730.803      94.869     271.018
  H      733.610      94.465     274.127
  H      733.890      96.939     274.070
  H      732.967      98.979     271.489
  H      731.046      99.112     273.898
  H      731.485     101.550     273.695
  H      734.228     101.059     273.475
  H      733.133     101.513     275.673
  H      732.532      99.840     275.715
  P      732.607     102.987     271.620
  C      735.207     103.088     271.616
  O      733.997     103.441     272.295
  O      731.440     103.807     272.055
  O      732.885     103.166     270.049
  H      732.590     104.054     269.762
  H      736.047     103.450     272.172
  H      735.209     103.527     270.640
  H      735.269     102.023     271.528

 6  7  8  9  10  11  12  13  14  15  16  27  31  32  33  34  35 0
 6-311+G(2d,p)
 ****
 36  37 0
 6-311+G(2d,p)
 ****
 1  2  3  4  5  17  18  19  20  21  22  23  24  25 0
 3-21G
 ****
 26  28  29  30  38  39  40  41  42  43  44  45 0
 3-21G
 ****


