%nproc=1
%NoSave
%Mem=1900MB
#P OB98/GEN NMR

erre ene a

0 1
  C     -101.305    -749.547    -322.789
  O     -102.323    -750.436    -323.253
  P     -102.722    -750.401    -324.809
  C     -101.057    -752.162    -325.878
  O     -101.463    -750.821    -325.694
  C     -101.399    -752.609    -327.304
  O     -100.740    -751.751    -328.266
  C     -100.967    -754.044    -327.608
  O     -101.954    -754.988    -327.234
  C     -100.737    -753.985    -329.107
  O     -101.997    -754.034    -329.816
  C     -100.082    -752.589    -329.268
  N      -98.625    -752.476    -329.080
  C      -97.764    -752.782    -330.135
  O      -98.133    -753.160    -331.246
  N      -96.422    -752.636    -329.883
  C      -95.859    -752.064    -328.771
  O      -94.661    -751.912    -328.631
  C      -96.819    -751.629    -327.754
  C      -98.123    -751.855    -327.934
  O     -102.903    -748.847    -325.123
  O     -103.956    -751.187    -325.150
  H     -101.793    -753.958    -330.771
  H     -103.834    -748.652    -325.355
  H      -95.785    -752.930    -330.612
  H      -96.420    -751.131    -326.876
  H      -98.834    -751.530    -327.188
  H     -100.311    -752.161    -330.250
  H     -100.163    -754.848    -329.459
  H     -100.008    -754.260    -327.130
  H     -102.489    -752.507    -327.449
  H     -101.549    -752.827    -325.152
  H      -99.981    -752.249    -325.697
  P     -101.492    -756.411    -326.650
  C     -100.750    -755.472    -324.374
  O     -100.336    -756.088    -325.578
  O     -101.168    -757.460    -327.660
  O     -102.723    -756.837    -325.709
  H     -103.340    -757.444    -326.187
  H      -99.909    -755.463    -323.670
  H     -101.582    -756.041    -323.921
  H     -101.069    -754.445    -324.567
  H     -101.157    -749.692    -321.739
  H     -101.604    -748.536    -322.971
  H     -100.392    -749.748    -323.309

 3  4  5  6  7  8  9  10  11  12  13  23  28  29  30  31  32 0
 6-311+G(2d,p)
 ****
 33  34 0
 6-311+G(2d,p)
 ****
 1  2  14  15  16  17  18  19  20  21  22  24  25  26  27 0
 3-21G
 ****
 35  36  37  38  39  40  41  42  43  44  45 0
 3-21G
 ****


