%nproc=1
%NoSave
%Mem=1900MB
#P OB98/GEN NMR

erre ene a

0 1
  C      619.702     -78.301    -164.273
  O      619.681     -77.183    -163.388
  P      619.753     -75.704    -164.016
  C      618.466     -74.404    -165.835
  O      618.420     -75.451    -164.872
  C      617.260     -73.464    -165.672
  O      616.035     -74.242    -165.793
  C      617.171     -72.758    -164.313
  O      617.826     -71.507    -164.150
  C      615.670     -72.475    -164.223
  O      615.360     -71.266    -164.944
  C      615.030     -73.673    -164.926
  N      610.889     -76.220    -163.324
  C      611.057     -75.263    -164.269
  N      612.197     -74.642    -164.634
  C      613.238     -75.089    -163.920
  C      613.222     -76.055    -162.924
  C      611.975     -76.629    -162.628
  N      611.799     -77.590    -161.657
  N      614.484     -76.248    -162.412
  C      615.248     -75.401    -163.071
  N      614.545     -74.689    -164.002
  O      621.031     -75.352    -164.702
  O      619.518     -74.777    -162.735
  H      615.551     -70.531    -164.333
  H      620.073     -73.981    -162.811
  H      610.161     -74.973    -164.808
  H      616.312     -75.264    -162.905
  H      614.187     -73.382    -165.552
  H      615.336     -72.320    -163.194
  H      617.468     -73.439    -163.501
  H      617.273     -72.716    -166.479
  H      618.463     -74.832    -166.837
  H      610.869     -77.919    -161.473
  H      612.590     -77.864    -161.084
  H      619.418     -73.890    -165.713
  P      619.414     -71.368    -164.324
  C      620.956     -70.877    -166.382
  O      619.648     -71.000    -165.870
  O      620.211     -72.534    -163.836
  O      619.728     -69.990    -163.577
  H      619.374     -69.201    -164.026
  H      620.902     -70.842    -167.476
  H      621.572     -71.739    -166.092
  H      621.410     -69.953    -166.023
  H      619.648     -79.206    -163.705
  H      620.609     -78.290    -164.841
  H      618.865     -78.246    -164.937

 3  4  5  6  7  8  9  10  11  12  22  25  29  30  31  32 0
 6-311+G(2d,p)
 ****
 33  36  37 0
 6-311+G(2d,p)
 ****
 1  2  13  14  15  16  17  18  19  20  21  23  24  26 0
 3-21G
 ****
 27  28  34  35  38  39  40  41  42  43  44  45  46  47  48 0
 3-21G
 ****


