%nproc=1
%NoSave
%Mem=1900MB
#P OB98/GEN NMR

erre ene a

0 1
  C     -338.068    -780.362    -718.178
  O     -338.306    -780.040    -716.822
  P     -339.199    -778.773    -716.415
  C     -341.550    -779.788    -716.229
  O     -340.671    -778.994    -717.016
  C     -342.845    -779.043    -715.930
  O     -342.541    -777.763    -715.317
  C     -343.720    -778.780    -717.163
  O     -345.091    -778.951    -716.757
  C     -343.436    -777.326    -717.487
  O     -344.466    -776.733    -718.249
  C     -343.247    -776.761    -716.074
  N     -342.524    -775.496    -716.074
  C     -343.279    -774.336    -716.207
  O     -344.494    -774.405    -716.438
  N     -342.654    -773.123    -716.081
  C     -341.349    -773.077    -716.034
  N     -340.775    -771.866    -715.849
  C     -340.503    -774.282    -716.148
  C     -341.149    -775.447    -716.129
  O     -338.595    -777.447    -716.727
  O     -339.426    -778.948    -714.840
  H     -339.154    -778.121    -714.386
  H     -344.210    -775.806    -718.461
  H     -339.433    -774.186    -716.232
  H     -340.604    -776.389    -716.185
  H     -344.222    -776.603    -715.590
  H     -342.506    -777.258    -718.058
  H     -343.506    -779.465    -717.984
  H     -343.406    -779.628    -715.185
  H     -341.382    -771.068    -715.730
  H     -341.041    -780.018    -715.286
  H     -339.827    -771.769    -715.480
  H     -341.754    -780.735    -716.741
  P     -346.133    -779.520    -717.837
  C     -346.391    -781.809    -716.646
  O     -346.042    -781.117    -717.823
  O     -345.410    -779.142    -719.219
  O     -347.500    -778.922    -717.811
  H     -346.082    -779.061    -719.923
  H     -346.199    -782.872    -716.801
  H     -347.447    -781.672    -716.423
  H     -345.778    -781.470    -715.808
  H     -337.454    -781.236    -718.234
  H     -337.570    -779.545    -718.657
  H     -339.000    -780.549    -718.669

 3  4  5  6  7  8  9  10  11  12  13  24  27  28  29  30  32 0
 6-311+G(2d,p)
 ****
 34  35 0
 6-311+G(2d,p)
 ****
 1  2  14  15  16  17  18  19  20  21  22  23  25  26 0
 3-21G
 ****
 31  33  36  37  38  39  40  41  42  43  44  45  46 0
 3-21G
 ****


