%nproc=1
%NoSave
%Mem=1900MB
#P OB98/GEN NMR

erre ene a

0 1
  C     -522.494    -639.726    -161.165
  O     -523.740    -639.699    -161.828
  H     -521.711    -639.446    -161.872
  H     -522.293    -640.738    -160.802
  H     -522.480    -639.021    -160.327
  P     -525.054    -639.772    -160.915
  C     -526.655    -638.323    -162.347
  O     -526.320    -639.626    -161.895
  C     -525.678    -637.865    -163.427
  O     -525.492    -638.942    -164.380
  C     -526.142    -636.626    -164.205
  O     -525.016    -635.791    -164.472
  C     -526.671    -637.209    -165.506
  O     -526.629    -636.271    -166.580
  C     -525.749    -638.410    -165.693
  N     -525.977    -640.131    -170.426
  C     -525.188    -639.142    -169.871
  N     -524.329    -638.516    -170.704
  N     -525.232    -638.803    -168.608
  C     -526.110    -639.541    -167.888
  C     -526.955    -640.540    -168.318
  C     -526.915    -640.887    -169.722
  O     -527.607    -641.736    -170.276
  N     -527.719    -641.024    -167.286
  C     -527.337    -640.319    -166.233
  N     -526.360    -639.414    -166.547
  O     -525.030    -638.380    -160.126
  O     -525.117    -640.929    -159.976
  H     -527.046    -636.698    -167.359
  H     -524.921    -638.542    -159.170
  H     -525.918    -640.343    -171.405
  H     -527.737    -640.419    -165.236
  H     -524.794    -638.133    -166.147
  H     -527.713    -637.525    -165.375
  H     -524.209    -638.758    -171.670
  H     -526.908    -636.051    -163.675
  H     -523.711    -637.816    -170.311
  H     -524.703    -637.684    -162.958
  H     -526.614    -637.630    -161.501
  H     -527.675    -638.334    -162.752
  P     -524.280    -635.139    -163.205
  C     -521.827    -635.517    -163.945
  O     -522.856    -634.572    -163.687
  O     -523.895    -636.410    -162.311
  O     -525.127    -634.173    -162.442
  H     -524.467    -636.444    -161.517
  H     -520.941    -635.004    -164.256
  H     -522.142    -636.185    -164.719
  H     -521.623    -636.074    -163.055

 6  7  8  9  10  11  12  13  14  15  26  29  33  34 0
 6-311+G(2d,p)
 ****
 36  38  39  40  41 0
 6-311+G(2d,p)
 ****
 1  2  3  4  5  16  17  18  19  20  21  22  23  24  25 0
 3-21G
 ****
 27  28  30  31  32  35  37  42  43  44  45  46  47 0
 3-21G
 ****
 48  49 0
 3-21G
 ****


