%nproc=1
%NoSave
%Mem=1900MB
#P OB98/GEN NMR

erre ene a

0 1
  C      -10.858     212.762    -326.059
  O      -12.114     212.262    -326.468
  P      -12.247     210.865    -327.245
  C      -12.801     209.749    -324.996
  O      -11.969     209.728    -326.145
  C      -13.063     208.338    -324.473
  O      -13.797     207.574    -325.466
  C      -11.798     207.541    -324.117
  O      -12.138     206.713    -323.004
  C      -11.582     206.703    -325.364
  O      -10.744     205.579    -325.129
  C      -13.032     206.380    -325.745
  N      -13.152     205.959    -327.135
  C      -14.267     205.186    -327.468
  O      -15.051     204.822    -326.589
  N      -14.435     204.788    -328.770
  C      -13.516     205.056    -329.644
  N      -13.739     204.647    -330.920
  C      -12.262     205.760    -329.310
  C      -12.153     206.193    -328.055
  O      -11.433     210.751    -328.486
  O      -13.821     210.725    -327.496
  H      -10.898     204.923    -325.842
  H      -14.103     211.302    -328.247
  H      -11.502     205.914    -330.058
  H      -11.276     206.720    -327.717
  H      -13.432     205.581    -325.106
  H      -11.111     207.314    -326.141
  H      -10.935     208.170    -323.880
  H      -13.708     208.417    -323.585
  H      -14.618     204.181    -331.110
  H      -13.757     210.200    -325.275
  H      -13.130     204.876    -331.689
  H      -12.350     210.376    -324.218
  P      -11.010     206.108    -322.035
  C      -11.149     207.635    -319.991
  O      -10.439     207.323    -321.173
  O       -9.974     205.276    -322.718
  O      -11.833     205.253    -320.959
  H      -11.226     204.649    -320.492
  H      -10.524     208.268    -319.353
  H      -11.410     206.725    -319.438
  H      -12.065     208.179    -320.243
  H      -10.992     213.700    -325.562
  H      -10.232     212.899    -326.916
  H      -10.398     212.066    -325.389

 3  4  5  6  7  8  9  10  11  12  13  23  27  28  29  30  32 0
 6-311+G(2d,p)
 ****
 34  35 0
 6-311+G(2d,p)
 ****
 1  2  14  15  16  17  18  19  20  21  22  24  25  26 0
 3-21G
 ****
 31  33  36  37  38  39  40  41  42  43  44  45  46 0
 3-21G
 ****


