%nproc=1
%NoSave
%Mem=1900MB
#P OB98/GEN NMR

erre ene a

0 1
  C      113.650    -178.804    -146.839
  O      114.477    -178.911    -145.702
  H      113.087    -177.868    -146.771
  H      112.937    -179.631    -146.873
  H      114.250    -178.787    -147.752
  P      115.391    -180.217    -145.515
  C      117.658    -179.040    -145.764
  O      116.765    -179.682    -144.865
  C      118.466    -177.954    -145.054
  O      117.598    -176.832    -144.734
  C      119.113    -178.423    -143.741
  O      120.480    -178.006    -143.700
  C      118.323    -177.689    -142.670
  O      119.049    -177.524    -141.456
  C      117.961    -176.398    -143.412
  N      116.888    -175.669    -142.751
  C      117.132    -175.275    -141.432
  O      118.207    -175.540    -140.893
  N      116.137    -174.639    -140.737
  C      114.980    -174.456    -141.294
  N      114.028    -173.845    -140.540
  C      114.670    -174.881    -142.674
  C      115.662    -175.472    -143.340
  O      115.555    -181.045    -146.745
  O      114.718    -181.018    -144.304
  H      118.447    -177.139    -140.783
  H      114.988    -181.964    -144.359
  H      113.689    -174.710    -143.090
  H      115.528    -175.820    -144.359
  H      118.834    -175.737    -143.497
  H      117.410    -178.256    -142.443
  H      119.068    -179.503    -143.604
  H      119.220    -177.569    -145.752
  H      114.281    -173.577    -139.595
  H      117.076    -178.607    -146.587
  H      113.086    -173.672    -140.856
  H      118.346    -179.791    -146.165
  P      121.389    -178.664    -142.553
  C      122.824    -180.066    -144.197
  O      122.803    -179.052    -143.203
  O      120.681    -180.077    -142.290
  O      121.461    -177.845    -141.307
  H      120.251    -180.073    -141.414
  H      123.829    -180.214    -144.534
  H      122.211    -179.769    -145.022
  H      122.448    -180.979    -143.784

 6  7  8  9  10  11  12  13  14  15  16  26  30  31  32  33  35 0
 6-311+G(2d,p)
 ****
 37  38 0
 6-311+G(2d,p)
 ****
 1  2  3  4  5  17  18  19  20  21  22  23  24  25 0
 3-21G
 ****
 27  28  29  34  36  39  40  41  42  43  44  45  46 0
 3-21G
 ****


