%nproc=1
%NoSave
%Mem=1900MB
#P OB98/GEN NMR

erre ene a

0 1
  C      276.247    -115.441      95.420
  O      276.971    -115.928      94.310
  H      275.771    -116.284      95.928
  H      275.472    -114.746      95.089
  H      276.922    -114.940      96.121
  P      277.749    -114.844      93.419
  C      277.109    -113.303      91.432
  O      276.698    -114.344      92.306
  C      275.906    -112.730      90.682
  O      275.448    -113.709      89.708
  C      274.714    -112.388      91.589
  O      274.093    -111.194      91.104
  C      273.770    -113.558      91.370
  O      272.422    -113.225      91.679
  C      274.027    -113.857      89.897
  N      270.420    -116.374      87.452
  C      270.616    -115.017      87.610
  N      269.712    -114.198      87.032
  N      271.615    -114.502      88.281
  C      272.457    -115.437      88.785
  C      272.367    -116.806      88.711
  C      271.245    -117.361      87.982
  O      271.006    -118.555      87.830
  N      273.402    -117.405      89.383
  C      274.117    -116.400      89.866
  N      273.580    -115.187      89.521
  O      278.784    -115.727      92.574
  O      278.426    -113.752      94.178
  H      271.848    -113.933      91.318
  H      279.590    -115.216      92.370
  H      269.628    -116.718      86.934
  H      275.014    -116.496      90.459
  H      273.517    -113.150      89.230
  H      274.068    -114.405      91.998
  H      268.936    -114.521      86.473
  H      274.985    -112.261      92.638
  H      269.843    -113.196      87.120
  H      276.234    -111.850      90.114
  H      277.828    -113.705      90.712
  H      277.591    -112.513      92.016
  P      273.793    -110.031      92.165
  C      271.679    -108.936      93.207
  O      272.228    -110.060      92.532
  O      273.944    -108.696      91.290
  O      274.725    -110.019      93.334
  H      274.763    -108.230      91.540
  H      270.636    -109.099      93.382
  H      271.807    -108.061      92.605
  H      272.181    -108.801      94.142

 6  7  8  9  10  11  12  13  14  15  26  29  33  34 0
 6-311+G(2d,p)
 ****
 36  38  39  40  41 0
 6-311+G(2d,p)
 ****
 1  2  3  4  5  16  17  18  19  20  21  22  23  24  25 0
 3-21G
 ****
 27  28  30  31  32  35  37  42  43  44  45  46  47 0
 3-21G
 ****
 48  49 0
 3-21G
 ****


