%nproc=1
%NoSave
%Mem=1900MB
#P OB98/GEN NMR

erre ene a

0 1
  C     -279.022     104.134    -669.282
  O     -277.692     104.412    -669.665
  H     -279.020     103.289    -668.590
  H     -279.618     103.865    -670.157
  H     -279.472     104.994    -668.777
  P     -277.390     105.735    -670.515
  C     -278.321     104.708    -672.688
  O     -278.438     105.751    -671.730
  C     -278.158     105.298    -674.084
  O     -278.282     104.261    -675.083
  C     -279.200     106.350    -674.443
  O     -278.923     107.580    -673.803
  C     -279.069     106.374    -675.961
  O     -277.942     107.166    -676.366
  C     -278.834     104.877    -676.270
  N     -280.044     104.180    -676.711
  C     -280.036     103.690    -678.012
  O     -279.103     103.852    -678.786
  N     -281.170     103.018    -678.401
  C     -282.308     102.867    -677.660
  O     -283.314     102.304    -678.076
  C     -282.265     103.436    -676.306
  C     -281.157     104.053    -675.897
  O     -275.964     105.949    -670.910
  O     -277.923     106.919    -669.572
  H     -277.991     107.245    -677.336
  H     -277.170     107.333    -669.109
  H     -281.191     102.668    -679.345
  H     -283.151     103.341    -675.690
  H     -281.110     104.482    -674.904
  H     -278.074     104.766    -677.062
  H     -279.943     106.798    -676.453
  H     -280.204     105.990    -674.186
  H     -277.143     105.719    -674.162
  H     -279.233     104.101    -672.658
  H     -277.466     104.081    -672.427
  P     -280.093     108.631    -673.505
  C     -279.673     109.991    -675.633
  O     -280.608     109.198    -674.916
  O     -279.762     109.681    -672.494
  O     -281.314     107.718    -673.008
  H     -281.425     107.814    -672.043
  H     -280.113     110.317    -676.553
  H     -278.799     109.410    -675.842
  H     -279.403     110.843    -675.045

 6  7  8  9  10  11  12  13  14  15  16  26  31  32  33  34  35 0
 6-311+G(2d,p)
 ****
 36  37 0
 6-311+G(2d,p)
 ****
 1  2  3  4  5  17  18  19  20  21  22  23  24  25 0
 3-21G
 ****
 27  28  29  30  38  39  40  41  42  43  44  45 0
 3-21G
 ****


