%nproc=1
%NoSave
%Mem=1900MB
#P OB98/GEN NMR

erre ene a

0 1
  C      -61.884     162.309     -56.079
  O      -62.641     163.077     -55.147
  P      -62.957     162.632     -53.648
  C      -63.047     165.175     -53.017
  O      -63.609     163.878     -52.884
  C      -63.687     166.209     -52.075
  O      -65.035     166.507     -52.527
  C      -63.820     165.640     -50.661
  O      -62.721     165.683     -49.772
  C      -65.090     166.271     -50.110
  O      -64.831     167.455     -49.354
  C      -65.892     166.609     -51.370
  N      -70.472     165.197     -49.583
  C      -69.553     166.067     -49.035
  N      -69.866     166.596     -47.833
  N      -68.421     166.379     -49.606
  C      -68.193     165.714     -50.760
  C      -69.017     164.812     -51.393
  C      -70.297     164.518     -50.782
  O      -71.152     163.764     -51.232
  N      -68.443     164.323     -52.539
  C      -67.263     164.906     -52.585
  N      -67.066     165.768     -51.528
  O      -61.860     161.907     -52.945
  O      -64.190     161.605     -53.819
  H      -64.370     168.087     -49.934
  H      -64.096     160.937     -53.108
  H      -71.341     165.010     -49.111
  H      -66.520     164.748     -53.359
  H      -66.253     167.643     -51.344
  H      -65.602     165.577     -49.433
  H      -70.663     166.306     -47.288
  H      -64.048     164.572     -50.769
  H      -69.106     167.059     -47.330
  H      -63.145     167.157     -52.111
  H      -63.182     165.473     -54.060
  H      -61.971     165.136     -52.842
  P      -61.746     164.466     -49.411
  C      -60.075     166.177     -48.490
  O      -60.753     164.955     -48.255
  O      -60.778     164.357     -50.680
  O      -62.430     163.164     -49.149
  H      -60.318     163.497     -50.683
  H      -59.223     166.247     -47.809
  H      -60.752     167.014     -48.303
  H      -59.709     166.227     -49.522
  H      -61.823     162.836     -57.008
  H      -62.362     161.365     -56.235
  H      -60.899     162.150     -55.693

 3  4  5  6  7  8  9  10  11  12  23  26  30  31 0
 6-311+G(2d,p)
 ****
 33  35  36  37  38 0
 6-311+G(2d,p)
 ****
 1  2  13  14  15  16  17  18  19  20  21  22  24  25 0
 3-21G
 ****
 27  28  29  32  34  39  40  41  42  43  44  45  46  47  48  49 0
 3-21G
 ****


