%nproc=1
%NoSave
%Mem=1900MB
#P OB98/GEN NMR

erre ene a

0 1
  C       -0.842      23.984     -44.635
  O       -0.812      23.285     -45.867
  P        0.236      23.753     -46.987
  C       -1.446      25.642     -47.695
  O       -0.126      25.274     -47.343
  C       -1.491      27.109     -48.131
  O       -0.874      27.927     -47.099
  C       -0.760      27.403     -49.447
  O       -1.495      28.433     -50.121
  C        0.584      27.929     -48.976
  O        1.241      28.713     -49.958
  C        0.162      28.708     -47.725
  N        1.261      28.945     -46.789
  C        2.222      29.888     -47.140
  O        2.212      30.515     -48.198
  N        3.233      30.072     -46.232
  C        3.410      29.378     -45.072
  O        4.345      29.572     -44.305
  C        2.390      28.361     -44.777
  C        1.376      28.203     -45.629
  O       -0.274      22.923     -48.254
  O        1.660      23.519     -46.611
  H       -1.241      22.827     -48.281
  H        0.735      29.538     -50.075
  H        3.921      30.778     -46.449
  H        2.504      27.779     -43.871
  H        0.613      27.459     -45.434
  H       -0.287      29.665     -48.013
  H        1.236      27.086     -48.721
  H       -0.681      26.521     -50.089
  H       -2.543      27.414     -48.202
  H       -2.103      25.507     -46.832
  H       -1.803      24.985     -48.495
  P       -2.124      28.096     -51.564
  C       -0.432      29.691     -52.765
  O       -0.999      28.405     -52.659
  O       -3.131      29.335     -51.728
  O       -2.811      26.774     -51.658
  H       -2.716      30.188     -51.529
  H        0.514      29.615     -53.308
  H       -0.234      30.123     -51.780
  H       -1.106      30.345     -53.324
  H       -1.588      23.555     -43.999
  H       -1.075      25.013     -44.814
  H        0.115      23.912     -44.161

 3  4  5  6  7  8  9  10  11  12  13  24  28  29  30  31  32 0
 6-311+G(2d,p)
 ****
 33  34 0
 6-311+G(2d,p)
 ****
 1  2  14  15  16  17  18  19  20  21  22  23  25  26  27 0
 3-21G
 ****
 35  36  37  38  39  40  41  42  43  44  45 0
 3-21G
 ****


