%nproc=1
%NoSave
%Mem=1900MB
#P OB98/GEN NMR

erre ene a

0 1
  C      140.103      26.975    -429.523
  O      141.088      26.128    -430.076
  H      140.560      27.941    -429.285
  H      139.704      26.538    -428.605
  H      139.293      27.135    -430.242
  P      140.624      24.651    -430.496
  C      140.281      22.403    -429.238
  O      140.596      23.790    -429.138
  C      140.132      21.793    -427.845
  O      141.394      21.916    -427.132
  C      139.046      22.458    -426.986
  O      138.385      21.447    -426.211
  C      139.847      23.349    -426.052
  O      139.133      23.648    -424.856
  C      141.094      22.493    -425.846
  N      142.732      25.116    -421.873
  C      141.571      24.397    -422.053
  N      140.697      24.378    -421.022
  N      141.275      23.761    -423.154
  C      142.246      23.843    -424.098
  C      143.438      24.532    -424.044
  C      143.737      25.253    -422.827
  O      144.745      25.924    -422.619
  N      144.132      24.396    -425.225
  C      143.363      23.630    -425.983
  N      142.215      23.271    -425.339
  O      141.895      24.065    -431.274
  O      139.376      24.576    -431.314
  H      138.800      22.802    -424.483
  H      141.618      23.420    -431.957
  H      142.907      25.601    -421.007
  H      143.597      23.319    -426.993
  H      140.930      21.674    -425.135
  H      140.096      24.290    -426.554
  H      140.872      24.821    -420.131
  H      138.309      23.015    -427.567
  H      139.839      23.849    -421.125
  H      139.942      20.716    -427.960
  H      141.091      21.896    -429.776
  H      139.349      22.287    -429.801
  P      136.791      21.537    -426.083
  C      135.049      22.944    -424.770
  O      136.423      22.682    -425.015
  O      136.412      20.175    -425.316
  O      136.079      21.625    -427.392
  H      135.976      19.559    -425.926
  H      134.959      23.724    -424.043
  H      134.577      22.057    -424.402
  H      134.576      23.249    -425.680

 6  7  8  9  10  11  12  13  14  15  26  29  33  34 0
 6-311+G(2d,p)
 ****
 36  38  39  40  41 0
 6-311+G(2d,p)
 ****
 1  2  3  4  5  16  17  18  19  20  21  22  23  24  25 0
 3-21G
 ****
 27  28  30  31  32  35  37  42  43  44  45  46  47 0
 3-21G
 ****
 48  49 0
 3-21G
 ****


