%nproc=1
%NoSave
%Mem=1900MB
#P OB98/GEN NMR

erre ene a

0 1
  C       63.889    -128.167       7.084
  O       64.588    -127.394       6.109
  P       65.500    -126.170       6.603
  C       65.290    -123.608       6.792
  O       64.605    -124.838       6.583
  C       64.951    -122.600       5.690
  O       65.553    -122.964       4.432
  C       63.460    -122.498       5.411
  O       62.797    -121.781       6.437
  C       63.459    -121.826       4.043
  O       63.613    -120.404       4.168
  C       64.713    -122.439       3.378
  N       64.398    -123.459       2.388
  C       64.519    -123.069       1.048
  O       64.832    -121.914       0.762
  N       64.262    -123.999       0.069
  C       63.910    -125.205       0.400
  N       63.673    -126.083      -0.611
  C       63.763    -125.649       1.799
  C       64.012    -124.733       2.732
  O       66.835    -126.051       5.946
  O       65.655    -126.456       8.176
  H       64.018    -120.101       3.332
  H       66.514    -126.101       8.479
  H       63.472    -126.667       2.023
  H       63.924    -124.974       3.786
  H       65.298    -121.656       2.879
  H       62.523    -122.003       3.505
  H       63.031    -123.507       5.326
  H       65.341    -121.618       5.992
  H       63.771    -125.751      -1.564
  H       66.370    -123.790       6.809
  H       63.444    -127.055      -0.458
  H       65.021    -123.217       7.781
  P       61.818    -122.601       7.406
  C       59.485    -123.716       7.215
  O       60.520    -123.005       6.561
  O       61.273    -121.470       8.405
  O       62.470    -123.717       8.160
  H       61.130    -121.856       9.289
  H       58.573    -123.633       6.613
  H       59.288    -123.311       8.211
  H       59.757    -124.771       7.295
  H       63.331    -128.938       6.595
  H       63.220    -127.534       7.629
  H       64.591    -128.609       7.760

 3  4  5  6  7  8  9  10  11  12  13  23  27  28  29  30  32 0
 6-311+G(2d,p)
 ****
 34  35 0
 6-311+G(2d,p)
 ****
 1  2  14  15  16  17  18  19  20  21  22  24  25  26 0
 3-21G
 ****
 31  33  36  37  38  39  40  41  42  43  44  45  46 0
 3-21G
 ****


