%nproc=1
%NoSave
%Mem=1900MB
#P OB98/GEN NMR

erre ene a

0 1
  C       42.391    -308.773     -34.152
  O       41.864    -307.934     -35.155
  H       41.965    -308.479     -33.188
  H       43.477    -308.659     -34.107
  H       42.144    -309.824     -34.341
  P       41.960    -308.403     -36.682
  C       43.853    -306.718     -37.181
  O       43.448    -308.080     -37.201
  C       44.992    -306.443     -38.163
  O       45.459    -305.081     -38.027
  C       46.214    -307.335     -37.900
  O       46.161    -308.625     -38.485
  C       47.343    -306.508     -38.503
  O       47.465    -306.749     -39.910
  C       46.883    -305.065     -38.248
  N       50.986    -302.546     -36.525
  C       50.746    -303.061     -37.788
  N       51.751    -302.940     -38.684
  N       49.633    -303.654     -38.123
  C       48.757    -303.788     -37.099
  C       48.886    -303.332     -35.800
  C       50.107    -302.624     -35.457
  O       50.373    -302.159     -34.350
  N       47.788    -303.650     -35.042
  C       47.027    -304.360     -35.852
  N       47.561    -304.448     -37.119
  O       41.079    -307.314     -37.470
  O       41.470    -309.791     -36.960
  H       47.458    -307.713     -40.060
  H       40.726    -307.703     -38.289
  H       51.857    -302.074     -36.330
  H       46.076    -304.808     -35.583
  H       47.061    -304.420     -39.116
  H       48.309    -306.752     -38.056
  H       52.671    -302.598     -38.438
  H       46.391    -307.423     -36.820
  H       51.721    -303.531     -39.519
  H       44.623    -306.557     -39.189
  H       44.178    -306.500     -36.161
  H       43.000    -306.066     -37.395
  P       46.413    -309.923     -37.582
  C       48.765    -310.431     -38.576
  O       47.999    -310.094     -37.441
  O       45.982    -311.121     -38.558
  O       45.649    -309.955     -36.296
  H       45.069    -311.395     -38.377
  H       49.797    -310.504     -38.301
  H       48.647    -309.674     -39.323
  H       48.432    -311.371     -38.965

 6  7  8  9  10  11  12  13  14  15  26  29  33  34 0
 6-311+G(2d,p)
 ****
 36  38  39  40  41 0
 6-311+G(2d,p)
 ****
 1  2  3  4  5  16  17  18  19  20  21  22  23  24  25 0
 3-21G
 ****
 27  28  30  31  32  35  37  42  43  44  45  46  47 0
 3-21G
 ****
 48  49 0
 3-21G
 ****


