%nproc=1
%NoSave
%Mem=1900MB
#P OB98/GEN NMR

erre ene a

0 1
  C     -899.040     273.609    1287.939
  O     -898.010     272.645    1288.073
  H     -899.050     274.235    1288.841
  H     -900.000     273.120    1287.839
  H     -898.850     274.254    1287.077
  P     -897.650     271.724    1286.817
  C     -895.160     271.276    1287.313
  O     -896.100     271.958    1286.490
  C     -894.460     272.259    1288.262
  O     -895.440     272.780    1289.205
  C     -893.330     271.640    1289.090
  O     -892.360     272.669    1289.343
  C     -894.070     271.249    1290.357
  O     -893.200     270.891    1291.412
  C     -894.930     272.516    1290.533
  N     -896.020     272.392    1291.491
  C     -895.680     272.342    1292.849
  O     -894.530     272.385    1293.278
  N     -896.730     272.216    1293.714
  C     -898.060     272.172    1293.368
  O     -898.950     272.087    1294.204
  C     -898.340     272.216    1291.937
  C     -897.340     272.328    1291.075
  O     -898.560     271.843    1285.639
  O     -897.670     270.238    1287.420
  H     -898.500     269.792    1287.178
  H     -892.600     270.189    1291.104
  H     -896.510     272.180    1294.704
  H     -899.390     272.167    1291.644
  H     -897.520     272.381    1290.006
  H     -894.300     273.362    1290.814
  H     -894.690     270.365    1290.166
  H     -892.820     270.802    1288.581
  H     -894.100     273.121    1287.680
  H     -894.420     270.808    1286.657
  H     -895.670     270.503    1287.892
  P     -891.400     273.283    1288.222
  C     -891.530     275.864    1288.491
  O     -891.990     274.720    1287.774
  O     -891.150     272.366    1287.074
  O     -890.040     273.646    1288.982
  H     -889.290     273.633    1288.348
  H     -891.995     276.743    1288.096
  H     -890.468     275.946    1288.389
  H     -891.782     275.761    1289.526

 6  7  8  9  10  11  12  13  14  15  16  27  31  32  33  34  35 0
 6-311+G(2d,p)
 ****
 36  37 0
 6-311+G(2d,p)
 ****
 1  2  3  4  5  17  18  19  20  21  22  23  24  25 0
 3-21G
 ****
 26  28  29  30  38  39  40  41  42  43  44  45 0
 3-21G
 ****


