%nproc=1
%NoSave
%Mem=1900MB
#P OB98/GEN NMR

erre ene a

0 1
  C      279.383     330.075    -328.410
  O      279.979     331.357    -328.370
  H      280.042     329.402    -328.962
  H      278.416     330.117    -328.918
  H      279.255     329.684    -327.395
  P      279.186     332.545    -327.645
  C      279.928     334.507    -329.154
  O      280.054     333.874    -327.885
  C      281.304     334.680    -329.797
  O      282.131     335.543    -328.996
  C      282.087     333.373    -329.966
  O      281.655     332.683    -331.122
  C      283.498     333.917    -330.101
  O      283.690     334.453    -331.427
  C      283.497     335.061    -329.071
  N      286.725     336.083    -325.283
  C      286.660     336.608    -326.558
  N      287.609     337.510    -326.885
  N      285.759     336.270    -327.441
  C      284.919     335.308    -327.003
  C      284.887     334.695    -325.770
  C      285.854     335.128    -324.779
  O      285.922     334.709    -323.631
  N      283.950     333.699    -325.723
  C      283.374     333.738    -326.905
  N      283.931     334.694    -327.730
  O      278.820     332.313    -326.209
  O      277.899     332.783    -328.564
  H      282.942     335.051    -331.606
  H      277.144     332.251    -328.255
  H      287.448     336.378    -324.650
  H      282.551     333.107    -327.227
  H      284.131     335.900    -329.389
  H      284.262     333.150    -329.952
  H      288.417     337.697    -326.305
  H      282.029     332.751    -329.067
  H      287.620     337.865    -327.835
  H      281.161     335.179    -330.767
  H      279.460     335.485    -328.990
  H      279.288     333.915    -329.813
  P      281.813     331.085    -331.256
  C      283.633     331.545    -333.038
  O      282.444     330.844    -332.713
  O      280.569     330.310    -330.981
  O      283.037     330.734    -330.295
  H      282.766     330.600    -329.353
  H      283.937     331.290    -334.032
  H      284.406     331.276    -332.348
  H      283.453     332.598    -332.979

 6  7  8  9  10  11  12  13  14  15  26  29  33  34 0
 6-311+G(2d,p)
 ****
 36  38  39  40  41 0
 6-311+G(2d,p)
 ****
 1  2  3  4  5  16  17  18  19  20  21  22  23  24  25 0
 3-21G
 ****
 27  28  30  31  32  35  37  42  43  44  45  46  47 0
 3-21G
 ****
 48  49 0
 3-21G
 ****


