%nproc=1
%NoSave
%Mem=1900MB
#P OB98/GEN NMR

erre ene a

0 1
  C     -303.845      59.971    -688.922
  O     -303.763      58.930    -687.972
  H     -304.489      60.765    -688.518
  H     -304.279      59.605    -689.855
  H     -302.849      60.388    -689.114
  P     -302.868      57.657    -688.371
  C     -304.638      56.048    -687.355
  O     -303.285      56.474    -687.355
  C     -304.838      54.909    -686.364
  O     -304.012      53.773    -686.765
  C     -304.446      55.261    -684.911
  O     -305.361      54.628    -684.010
  C     -303.081      54.612    -684.757
  O     -302.751      54.353    -683.389
  C     -303.257      53.360    -685.604
  N     -299.998      49.697    -684.442
  C     -301.230      50.003    -683.891
  N     -301.664      49.227    -682.876
  N     -301.978      51.009    -684.302
  C     -301.432      51.682    -685.349
  C     -300.221      51.483    -685.975
  C     -299.391      50.396    -685.488
  O     -298.287      50.078    -685.913
  N     -300.013      52.407    -686.965
  C     -301.099      53.169    -686.948
  N     -301.994      52.761    -685.985
  O     -301.399      58.072    -687.884
  O     -302.894      57.275    -689.817
  H     -302.559      55.208    -682.955
  H     -300.714      57.653    -688.447
  H     -299.464      48.934    -684.072
  H     -301.290      54.015    -687.589
  H     -303.835      52.578    -685.088
  H     -302.302      55.273    -685.172
  H     -301.167      48.437    -682.528
  H     -304.419      56.337    -684.714
  H     -302.572      49.433    -682.467
  H     -305.883      54.564    -686.409
  H     -304.908      55.706    -688.360
  H     -305.283      56.893    -687.081
  P     -306.810      55.312    -683.827
  C     -306.209      55.885    -681.354
  O     -307.172      55.328    -682.258
  O     -307.807      54.215    -684.423
  O     -306.956      56.628    -684.540
  H     -308.158      54.518    -685.276
  H     -306.584      55.828    -680.354
  H     -306.030      56.908    -681.610
  H     -305.294      55.335    -681.424

 6  7  8  9  10  11  12  13  14  15  26  29  33  34 0
 6-311+G(2d,p)
 ****
 36  38  39  40  41 0
 6-311+G(2d,p)
 ****
 1  2  3  4  5  16  17  18  19  20  21  22  23  24  25 0
 3-21G
 ****
 27  28  30  31  32  35  37  42  43  44  45  46  47 0
 3-21G
 ****
 48  49 0
 3-21G
 ****


