%nproc=1
%NoSave
%Mem=1900MB
#P OB98/GEN NMR

erre ene a

0 1
  C      -79.284    -150.246    -290.314
  O      -79.010    -148.995    -289.716
  H      -78.769    -150.327    -291.274
  H      -78.922    -151.038    -289.653
  H      -80.361    -150.370    -290.457
  P      -79.474    -147.688    -290.525
  C      -77.080    -147.295    -291.459
  O      -78.157    -146.785    -290.682
  C      -76.677    -146.267    -292.511
  O      -77.730    -146.117    -293.489
  C      -76.421    -144.870    -291.960
  O      -75.128    -144.744    -291.396
  C      -76.552    -144.043    -293.227
  O      -75.355    -144.173    -294.017
  C      -77.730    -144.731    -293.928
  N      -81.666    -142.050    -295.805
  C      -80.512    -142.470    -296.363
  N      -79.514    -143.177    -295.797
  C      -79.793    -143.444    -294.512
  C      -80.923    -143.075    -293.800
  C      -81.897    -142.346    -294.503
  N      -83.067    -141.901    -293.930
  N      -80.836    -143.500    -292.488
  C      -79.688    -144.147    -292.422
  N      -79.018    -144.132    -293.616
  O      -80.347    -146.874    -289.458
  O      -80.213    -147.941    -291.796
  H      -74.614    -143.900    -293.446
  H      -80.934    -146.247    -289.916
  H      -80.374    -142.205    -297.409
  H      -79.304    -144.639    -291.540
  H      -77.629    -144.731    -295.019
  H      -76.693    -142.980    -293.032
  H      -77.202    -144.567    -291.250
  H      -75.790    -146.649    -293.032
  H      -77.398    -148.215    -291.953
  H      -83.606    -141.236    -294.463
  H      -83.175    -141.988    -292.929
  H      -76.237    -147.517    -290.800
  P      -75.035    -144.278    -289.862
  C      -75.801    -141.867    -290.472
  O      -74.789    -142.694    -289.901
  O      -73.626    -144.864    -289.388
  O      -76.164    -144.741    -289.001
  H      -73.621    -145.018    -288.424
  H      -75.493    -140.843    -290.425
  H      -76.713    -141.991    -289.926
  H      -75.956    -142.147    -291.493

 6  7  8  9  10  11  12  13  14  15  25  28  32  33  34  35 0
 6-311+G(2d,p)
 ****
 36  39  40 0
 6-311+G(2d,p)
 ****
 1  2  3  4  5  16  17  18  19  20  21  22  23  24 0
 3-21G
 ****
 26  27  29  30  31  37  38  41  42  43  44  45  46  47 0
 3-21G
 ****
 48 0
 3-21G
 ****


