%nproc=1
%NoSave
%Mem=1900MB
#P OB98/GEN NMR

erre ene a

0 1
  C     -346.309    -273.116     273.265
  O     -344.972    -273.463     273.568
  H     -346.827    -274.003     272.891
  H     -346.333    -272.341     272.495
  H     -346.823    -272.763     274.166
  P     -344.033    -272.283     274.115
  C     -344.978    -272.885     276.457
  O     -344.639    -271.855     275.539
  C     -344.089    -272.809     277.694
  O     -344.157    -271.496     278.294
  C     -344.451    -273.806     278.789
  O     -343.883    -275.080     278.528
  C     -343.844    -273.135     280.012
  O     -342.427    -273.382     280.104
  C     -344.123    -271.651     279.737
  N     -346.225    -269.717     283.901
  C     -344.912    -270.043     283.635
  N     -344.036    -269.878     284.650
  N     -344.494    -270.504     282.483
  C     -345.488    -270.644     281.578
  C     -346.824    -270.342     281.712
  C     -347.263    -269.809     282.983
  O     -348.402    -269.440     283.262
  N     -347.511    -270.609     280.560
  C     -346.604    -271.109     279.741
  N     -345.366    -271.166     280.318
  O     -344.403    -271.042     273.172
  O     -342.569    -272.569     274.098
  H     -342.273    -274.331     280.238
  H     -343.618    -270.473     273.071
  H     -346.482    -269.353     284.802
  H     -346.800    -271.443     278.729
  H     -343.324    -271.004     280.113
  H     -344.286    -273.509     280.938
  H     -344.338    -269.862     285.613
  H     -345.537    -273.874     278.912
  H     -343.074    -270.138     284.471
  H     -343.053    -272.963     277.364
  H     -344.833    -273.857     275.969
  H     -346.029    -272.785     276.739
  P     -344.857    -276.358     278.607
  C     -345.043    -276.619     276.024
  O     -345.716    -276.359     277.253
  O     -345.928    -275.940     279.720
  O     -344.175    -277.642     278.942
  H     -346.400    -276.730     280.046
  H     -345.746    -276.585     275.218
  H     -344.591    -277.588     276.063
  H     -344.286    -275.879     275.868

 6  7  8  9  10  11  12  13  14  15  26  29  33  34 0
 6-311+G(2d,p)
 ****
 36  38  39  40  41 0
 6-311+G(2d,p)
 ****
 1  2  3  4  5  16  17  18  19  20  21  22  23  24  25 0
 3-21G
 ****
 27  28  30  31  32  35  37  42  43  44  45  46  47 0
 3-21G
 ****
 48  49 0
 3-21G
 ****


