%nproc=1
%NoSave
%Mem=1900MB
#P OB98/GEN NMR

erre ene a

0 1
  C     -221.909      13.050    -248.559
  O     -221.205      11.838    -248.762
  P     -220.140      11.337    -247.674
  C     -218.090      12.411    -248.864
  O     -218.909      12.360    -247.717
  C     -216.701      12.973    -248.532
  O     -215.863      12.807    -249.702
  C     -216.676      14.465    -248.209
  O     -215.454      14.762    -247.530
  C     -216.651      15.079    -249.592
  O     -216.174      16.425    -249.575
  C     -215.779      14.079    -250.391
  N     -216.252      13.939    -251.783
  C     -215.724      14.828    -252.715
  O     -214.848      15.647    -252.444
  N     -216.301      14.800    -253.957
  C     -217.360      14.018    -254.321
  O     -218.051      14.220    -255.313
  C     -217.707      12.946    -253.373
  C     -217.164      12.969    -252.154
  O     -219.555      10.005    -248.342
  O     -220.704      11.078    -246.318
  H     -215.269      16.398    -249.179
  H     -220.014       9.218    -247.990
  H     -216.017      15.541    -254.590
  H     -218.439      12.212    -253.684
  H     -217.444      12.220    -251.417
  H     -214.729      14.395    -250.421
  H     -217.670      15.100    -249.996
  H     -217.533      14.812    -247.623
  H     -216.260      12.395    -247.714
  H     -218.580      13.019    -249.632
  H     -217.974      11.407    -249.293
  P     -215.436      16.020    -246.531
  C     -213.484      17.149    -247.761
  O     -214.840      17.251    -247.371
  O     -214.812      15.787    -245.197
  O     -216.989      16.401    -246.405
  H     -217.131      16.948    -245.609
  H     -213.343      17.708    -248.691
  H     -213.189      16.108    -247.927
  H     -212.852      17.584    -246.983
  H     -222.571      13.220    -249.382
  H     -221.213      13.859    -248.488
  H     -222.476      12.986    -247.654

 3  4  5  6  7  8  9  10  11  12  13  23  28  29  30  31  32 0
 6-311+G(2d,p)
 ****
 33  34 0
 6-311+G(2d,p)
 ****
 1  2  14  15  16  17  18  19  20  21  22  24  25  26  27 0
 3-21G
 ****
 35  36  37  38  39  40  41  42  43  44  45 0
 3-21G
 ****


