%nproc=1
%NoSave
%Mem=1900MB
#P OB98/GEN NMR

erre ene a

0 1
  C      -95.140     -72.248     361.174
  O      -96.204     -71.744     360.385
  H      -94.239     -72.302     360.554
  H      -95.383     -73.253     361.532
  H      -94.949     -71.585     362.021
  P      -97.617     -71.574     361.124
  C      -99.708     -73.100     361.434
  O      -98.394     -72.965     360.916
  C     -100.426     -74.280     360.766
  O     -100.654     -73.953     359.363
  C      -99.619     -75.593     360.788
  O     -100.557     -76.685     360.784
  C      -98.901     -75.536     359.449
  O      -98.358     -76.794     359.110
  C     -100.035     -74.996     358.577
  N     -101.571     -72.844     354.201
  C     -102.244     -73.190     355.317
  N     -101.766     -73.747     356.448
  C     -100.437     -73.928     356.365
  C      -99.614     -73.615     355.293
  C     -100.231     -73.052     354.165
  N      -99.548     -72.704     353.021
  N      -98.298     -73.946     355.578
  C      -98.331     -74.448     356.796
  N      -99.600     -74.464     357.307
  O      -98.405     -70.551     360.174
  O      -97.553     -71.093     362.535
  H      -97.780     -76.723     358.320
  H      -98.306     -69.642     360.514
  H     -103.319     -72.996     355.300
  H      -97.476     -74.823     357.349
  H     -100.795     -75.759     358.376
  H      -98.066     -74.831     359.483
  H      -98.960     -75.681     361.654
  H     -101.411     -74.407     361.227
  H     -100.255     -72.172     361.240
  H      -99.657     -73.270     362.514
  H     -100.071     -72.320     352.250
  H      -98.555     -72.869     352.973
  P     -100.475     -77.788     361.954
  C      -99.078     -79.950     362.440
  O      -99.305     -78.828     361.598
  O     -101.790     -78.667     361.677
  O     -100.476     -77.258     363.350
  H     -102.099     -79.063     362.514
  H      -98.266     -80.529     362.052
  H      -99.961     -80.553     362.476
  H      -98.836     -79.613     363.426

 6  7  8  9  10  11  12  13  14  15  25  28  32  33  34  35 0
 6-311+G(2d,p)
 ****
 36  37  40 0
 6-311+G(2d,p)
 ****
 1  2  3  4  5  16  17  18  19  20  21  22  23  24 0
 3-21G
 ****
 26  27  29  30  31  38  39 41  42  43  44  45  46  47  48 0
 3-21G
 ****


