%nproc=1
%NoSave
%Mem=1900MB
#P OB98/GEN NMR

erre ene a

0 1
  C     -172.291     -65.127     -75.138
  O     -172.342     -63.740     -74.872
  H     -172.486     -65.288     -76.202
  H     -173.058     -65.645     -74.558
  H     -171.304     -65.531     -74.896
  P     -171.880     -63.270     -73.408
  C     -172.682     -63.806     -70.998
  O     -172.991     -63.812     -72.384
  C     -173.965     -63.820     -70.172
  O     -174.736     -62.623     -70.419
  C     -174.891     -64.993     -70.472
  O     -174.499     -66.168     -69.776
  C     -176.208     -64.453     -69.939
  O     -176.223     -64.543     -68.500
  C     -176.146     -62.984     -70.378
  N     -179.840     -60.555     -72.858
  C     -179.552     -60.589     -71.507
  N     -180.371     -59.884     -70.698
  N     -178.553     -61.259     -70.991
  C     -177.826     -61.928     -71.917
  C     -178.010     -61.969     -73.281
  C     -179.113     -61.218     -73.839
  O     -179.398     -61.133     -75.030
  N     -177.062     -62.746     -73.892
  C     -176.316     -63.191     -72.900
  N     -176.743     -62.729     -71.679
  O     -172.139     -61.688     -73.428
  O     -170.467     -63.584     -73.051
  H     -177.079     -64.183     -68.205
  H     -171.439     -61.248     -72.906
  H     -180.627     -60.032     -73.201
  H     -175.463     -63.844     -73.011
  H     -176.636     -62.313     -69.663
  H     -177.071     -65.010     -70.304
  H     -181.187     -59.386     -71.024
  H     -174.980     -65.170     -71.551
  H     -180.161     -59.866     -69.708
  H     -173.682     -63.813     -69.110
  H     -172.109     -62.902     -70.761
  H     -172.074     -64.685     -70.764
  P     -174.762     -67.582     -70.496
  C     -176.891     -68.823     -71.319
  O     -176.358     -67.738     -70.567
  O     -174.338     -68.641     -69.374
  O     -174.023     -67.787     -71.773
  H     -174.104     -69.493     -69.790
  H     -177.960     -68.797     -71.274
  H     -176.539     -69.747     -70.910
  H     -176.574     -68.740     -72.338

 6  7  8  9  10  11  12  13  14  15  26  29  33  34 0
 6-311+G(2d,p)
 ****
 36  38  39  40  41 0
 6-311+G(2d,p)
 ****
 1  2  3  4  5  16  17  18  19  20  21  22  23  24  25 0
 3-21G
 ****
 27  28  30  31  32  35  37  42  43  44  45  46  47 0
 3-21G
 ****
 48  49 0
 3-21G
 ****


