%nproc=1
%NoSave
%Mem=1900MB
#P OB98/GEN NMR

erre ene a

0 1
  C     -231.584    -108.328     557.185
  O     -230.279    -107.838     557.418
  H     -231.515    -109.309     556.720
  H     -232.108    -107.653     556.501
  H     -232.140    -108.416     558.122
  P     -230.136    -106.553     558.370
  C     -229.443    -104.885     556.501
  O     -230.431    -105.260     557.457
  C     -230.006    -103.831     555.546
  O     -230.573    -102.742     556.331
  C     -228.958    -103.226     554.603
  O     -229.552    -103.020     553.318
  C     -228.634    -101.885     555.244
  O     -228.142    -100.930     554.298
  C     -229.974    -101.521     555.861
  N     -230.268     -96.632     557.093
  C     -230.584     -97.281     555.906
  N     -231.042     -96.505     554.897
  N     -230.470     -98.569     555.734
  C     -230.026     -99.217     556.837
  C     -229.677     -98.705     558.059
  C     -229.786     -97.266     558.231
  O     -229.496     -96.634     559.247
  N     -229.244     -99.686     558.914
  C     -229.340    -100.801     558.214
  N     -229.819    -100.571     556.945
  O     -228.559    -106.474     558.636
  O     -230.903    -106.614     559.647
  H     -228.819    -100.847     553.592
  H     -228.381    -106.621     559.586
  H     -230.367     -95.631     557.161
  H     -229.075    -101.784     558.570
  H     -230.660    -101.061     555.131
  H     -227.872    -102.021     556.020
  H     -231.214     -95.517     554.978
  H     -228.068    -103.851     554.495
  H     -231.319     -96.964     554.035
  H     -230.830    -104.273     554.978
  H     -229.146    -105.773     555.932
  H     -228.568    -104.484     557.024
  P     -228.737    -103.558     552.046
  C     -227.261    -101.556     551.295
  O     -227.317    -102.796     551.993
  O     -229.540    -102.932     550.806
  O     -228.665    -105.052     551.958
  H     -230.041    -103.642     550.346
  H     -226.266    -101.166     551.341
  H     -227.938    -100.861     551.747
  H     -227.538    -101.709     550.273

 6  7  8  9  10  11  12  13  14  15  26  29  33  34 0
 6-311+G(2d,p)
 ****
 36  38  39  40  41 0
 6-311+G(2d,p)
 ****
 1  2  3  4  5  16  17  18  19  20  21  22  23  24  25 0
 3-21G
 ****
 27  28  30  31  32  35  37  42  43  44  45  46  47 0
 3-21G
 ****
 48  49 0
 3-21G
 ****


