%nproc=1
%NoSave
%Mem=1900MB
#P OB98/GEN NMR

erre ene a

0 1
  C      139.082    -158.818    -101.660
  O      139.320    -159.815    -102.634
  H      138.870    -159.306    -100.705
  H      138.220    -158.209    -101.946
  H      139.965    -158.184    -101.545
  P      139.594    -159.296    -104.129
  C      138.196    -158.072    -105.939
  O      138.207    -158.678    -104.652
  C      136.901    -157.293    -106.150
  O      136.796    -156.206    -105.205
  C      136.754    -156.683    -107.541
  O      136.253    -157.636    -108.463
  C      135.769    -155.555    -107.265
  O      134.415    -156.054    -107.201
  C      136.230    -155.056    -105.888
  N      137.078    -150.246    -104.595
  C      135.938    -151.016    -104.471
  N      134.850    -150.406    -103.952
  N      135.863    -152.268    -104.835
  C      137.008    -152.732    -105.396
  C      138.201    -152.069    -105.574
  C      138.286    -150.702    -105.113
  O      139.291    -149.994    -105.121
  N      139.138    -152.886    -106.158
  C      138.499    -154.024    -106.359
  N      137.201    -153.978    -105.919
  O      139.734    -160.650    -104.975
  O      140.795    -158.430    -104.297
  H      133.816    -155.320    -106.979
  H      140.429    -160.526    -105.652
  H      137.089    -149.297    -104.269
  H      138.933    -154.907    -106.813
  H      135.390    -154.701    -105.283
  H      135.782    -154.806    -108.059
  H      134.759    -149.400    -103.928
  H      137.705    -156.259    -107.886
  H      133.994    -150.950    -103.930
  H      136.067    -157.979    -105.942
  H      138.279    -158.854    -106.698
  H      139.053    -157.395    -106.023
  P      136.708    -157.518    -109.993
  C      136.515    -155.662    -111.803
  O      135.953    -156.257    -110.641
  O      135.988    -158.776    -110.678
  O      138.182    -157.564    -110.212
  H      136.647    -159.473    -110.859
  H      135.904    -154.841    -112.114
  H      136.563    -156.388    -112.588
  H      137.501    -155.310    -111.582

 6  7  8  9  10  11  12  13  14  15  26  29  33  34 0
 6-311+G(2d,p)
 ****
 36  38  39  40  41 0
 6-311+G(2d,p)
 ****
 1  2  3  4  5  16  17  18  19  20  21  22  23  24  25 0
 3-21G
 ****
 27  28  30  31  32  35  37  42  43  44  45  46  47 0
 3-21G
 ****
 48  49 0
 3-21G
 ****


