%nproc=1
%NoSave
%Mem=1900MB
#P OB98/GEN NMR

erre ene a

0 1
  C       35.812     313.361     109.535
  O       36.543     312.377     110.239
  H       34.804     313.452     109.949
  H       36.323     314.323     109.641
  H       35.758     313.103     108.473
  P       35.938     310.890     110.240
  C       35.687     310.726     112.825
  O       36.358     310.268     111.659
  C       35.982     309.778     113.983
  O       35.758     308.410     113.574
  C       37.425     309.834     114.470
  O       37.657     310.909     115.363
  C       37.538     308.495     115.177
  O       36.883     308.564     116.456
  C       36.756     307.576     114.225
  N       40.190     303.893     113.305
  C       39.502     304.226     114.418
  N       38.590     305.207     114.576
  C       38.404     305.874     113.426
  C       39.027     305.643     112.209
  C       39.967     304.599     112.172
  N       40.695     304.277     111.047
  N       38.592     306.549     111.261
  C       37.709     307.297     111.892
  N       37.585     306.948     113.210
  O       36.873     310.099     109.209
  O       34.486     310.776     109.920
  H       35.948     308.788     116.286
  H       36.462     309.248     108.963
  H       39.716     303.628     115.300
  H       37.145     308.105     111.444
  H       36.226     306.775     114.754
  H       38.574     308.200     115.362
  H       38.131     309.855     113.631
  H       35.283     310.000     114.798
  H       34.608     310.747     112.632
  H       41.446     303.615     111.161
  H       40.645     304.887     110.246
  H       36.029     311.737     113.069
  P       39.173     311.421     115.532
  C       39.578     310.778     118.015
  O       39.346     311.819     117.077
  O       39.157     312.834     114.783
  O       40.205     310.495     114.977
  H       40.023     313.018     114.373
  H       39.671     311.196     118.996
  H       40.480     310.262     117.760
  H       38.757     310.092     117.996

 6  7  8  9  10  11  12  13  14  15  25  28  32  33  34  35 0
 6-311+G(2d,p)
 ****
 36  39  40 0
 6-311+G(2d,p)
 ****
 1  2  3  4  5  16  17  18  19  20  21  22  23  24 0
 3-21G
 ****
 26  27  29  30  31  37  38  41  42  43  44  45  46  47 0
 3-21G
 ****
 48 0
 3-21G
 ****


