%nproc=1
%NoSave
%Mem=1900MB
#P OB98/GEN NMR

erre ene a

0 1
  C       16.317     -28.133     113.886
  O       15.131     -28.101     114.663
  P       14.956     -29.025     115.967
  C       16.133     -29.098     118.269
  O       16.174     -28.628     116.933
  C       17.521     -29.567     118.712
  O       17.796     -30.849     118.088
  C       18.662     -28.613     118.333
  O       19.634     -28.674     119.384
  C       19.211     -29.231     117.061
  O       20.546     -28.830     116.791
  C       19.039     -30.724     117.367
  N       19.033     -31.544     116.163
  C       20.219     -32.190     115.809
  O       21.240     -32.048     116.481
  N       20.225     -32.989     114.693
  C       19.167     -33.068     113.947
  N       19.204     -33.919     112.886
  C       17.928     -32.318     114.225
  C       17.924     -31.603     115.347
  O       14.831     -30.483     115.689
  O       13.705     -28.394     116.732
  H       21.045     -28.840     117.630
  H       12.837     -28.736     116.401
  H       17.079     -32.394     113.556
  H       17.051     -31.039     115.643
  H       19.831     -31.064     118.044
  H       18.590     -28.928     116.211
  H       18.326     -27.579     118.210
  H       17.502     -29.728     119.797
  H       20.004     -34.542     112.830
  H       15.442     -29.944     118.318
  H       18.349     -34.274     112.470
  H       15.757     -28.307     118.928
  P       20.643     -27.436     119.560
  C       20.381     -24.900     120.041
  O       19.775     -26.090     119.582
  O       21.328     -27.369     118.108
  O       21.696     -27.581     120.611
  H       22.207     -26.954     118.192
  H       19.651     -24.089     119.979
  H       21.241     -24.641     119.414
  H       20.699     -25.007     121.081
  H       16.227     -27.447     113.070
  H       16.468     -29.122     113.506
  H       17.151     -27.854     114.496

 3  4  5  6  7  8  9  10  11  12  13  23  27  28  29  30  32 0
 6-311+G(2d,p)
 ****
 34  35 0
 6-311+G(2d,p)
 ****
 1  2  14  15  16  17  18  19  20  21  22  24  25  26 0
 3-21G
 ****
 31  33  36  37  38  39  40  41  42  43  44  45  46 0
 3-21G
 ****


