%nproc=1
%NoSave
%Mem=1900MB
#P OB98/GEN NMR

erre ene a

0 1
  C     1467.888      89.208     755.563
  O     1467.065      89.925     754.626
  P     1465.485      89.855     754.876
  C     1464.897      88.291     752.903
  O     1464.938      88.463     754.306
  C     1463.698      87.432     752.450
  O     1463.706      87.241     751.012
  C     1463.699      86.018     753.091
  O     1462.339      85.627     753.298
  C     1464.297      85.149     751.994
  O     1463.969      83.750     752.190
  C     1463.685      85.805     750.759
  N     1464.713      82.105     747.355
  C     1463.931      82.154     748.486
  N     1463.722      83.166     749.345
  C     1464.397      84.273     748.952
  C     1465.244      84.391     747.832
  C     1465.380      83.232     747.050
  N     1466.196      83.213     745.927
  N     1465.788      85.662     747.784
  C     1465.282      86.293     748.826
  N     1464.430      85.485     749.533
  O     1464.888      90.929     753.844
  O     1465.040      90.158     756.275
  H     1464.158      83.299     751.335
  H     1464.600      91.731     754.335
  H     1463.397      81.214     748.703
  H     1465.522      87.306     749.129
  H     1462.640      85.490     750.582
  H     1465.382      85.258     751.993
  H     1464.242      85.940     754.030
  H     1462.788      87.944     752.709
  H     1465.826      87.794     752.543
  H     1466.260      82.346     745.423
  H     1466.743      84.011     745.693
  H     1464.882      89.278     752.389
  P     1461.869      85.338     754.799
  C     1462.427      82.798     754.779
  O     1462.750      84.071     755.272
  O     1460.424      84.731     754.651
  O     1461.896      86.528     755.705
  H     1459.925      84.879     755.468
  H     1463.356      82.263     754.549
  H     1461.820      82.830     753.865
  H     1461.889      82.231     755.552
  H     1468.918      89.326     755.297
  H     1467.631      88.169     755.541
  H     1467.727      89.595     756.548

 3  4  5  6  7  8  9  10  11  12  22  25  29  30  31  32 0
 6-311+G(2d,p)
 ****
 33  36  37 0
 6-311+G(2d,p)
 ****
 1  2  13  14  15  16  17  18  19  20  21  23  24  26 0
 3-21G
 ****
 27  28  34  35  38  39  40  41  42  43  44  45  46  47  48 0
 3-21G
 ****


