%nproc=1
%NoSave
%Mem=1900MB
#P OB98/GEN NMR

erre ene a

0 1
  C     -325.046    -217.308    -523.805
  O     -325.326    -217.848    -522.523
  P     -326.870    -218.071    -522.127
  C     -326.891    -215.755    -520.932
  O     -327.473    -216.589    -521.932
  C     -327.682    -214.465    -520.789
  O     -327.658    -213.727    -522.036
  C     -329.161    -214.657    -520.464
  O     -329.370    -214.896    -519.081
  C     -329.733    -213.312    -520.875
  O     -329.524    -212.354    -519.814
  C     -328.874    -212.947    -522.107
  N     -330.643    -210.923    -526.412
  C     -330.000    -210.320    -525.336
  N     -329.779    -208.994    -525.442
  N     -329.622    -210.961    -524.267
  C     -329.867    -212.288    -524.320
  C     -330.497    -213.011    -525.314
  C     -330.953    -212.284    -526.482
  O     -331.584    -212.752    -527.424
  N     -330.554    -214.342    -525.009
  C     -329.937    -214.442    -523.853
  N     -329.529    -213.217    -523.372
  O     -326.784    -218.632    -520.631
  O     -327.624    -218.996    -523.025
  H     -329.985    -211.534    -520.062
  H     -327.579    -219.154    -520.427
  H     -330.895    -210.384    -527.222
  H     -329.768    -215.376    -523.327
  H     -328.572    -211.894    -522.086
  H     -330.813    -213.344    -521.069
  H     -329.926    -208.471    -526.299
  H     -329.599    -215.451    -521.082
  H     -329.278    -208.538    -524.686
  H     -327.192    -213.843    -520.023
  H     -325.861    -215.511    -521.225
  H     -326.870    -216.302    -519.992
  P     -330.369    -216.097    -518.704
  C     -332.226    -214.468    -517.881
  O     -331.843    -215.467    -518.810
  O     -330.139    -216.280    -517.126
  O     -330.134    -217.369    -519.465
  H     -330.363    -217.194    -516.859
  H     -331.385    -213.815    -517.623
  H     -332.610    -214.951    -516.979
  H     -333.026    -213.861    -518.324
  H     -323.987    -217.216    -523.930
  H     -325.501    -216.344    -523.893
  H     -325.439    -217.958    -524.559

 3  4  5  6  7  8  9  10  11  12  23  26  30  31  33  0
 6-311+G(2d,p)
 ****
 35  36  37  38 0
 6-311+G(2d,p)
 ****
 1  2  13  14  15  16  17  18  19  20  21  22  24  25  27  28  29 0
 3-21G
 ****
 32  34  39  40  41  42  43  44  45  46  47  48  49 0
 3-21G
 ****


