%nproc=1
%NoSave
%Mem=1900MB
#P OB98/GEN NMR

erre ene a

0 1
  C     1100.538    -899.130     -35.957
  O     1099.375    -898.700     -36.634
  H     1101.304    -899.400     -36.702
  H     1100.327    -900.000     -35.333
  H     1100.936    -898.310     -35.340
  P     1098.073    -898.360     -35.760
  C     1099.020    -896.050     -35.077
  O     1098.606    -897.340     -34.643
  C     1098.804    -895.020     -33.965
  O     1097.407    -894.880     -33.655
  C     1099.466    -895.380     -32.629
  O     1100.874    -895.210     -32.634
  C     1098.756    -894.390     -31.722
  O     1099.310    -893.080     -31.901
  C     1097.306    -894.480     -32.266
  N     1096.471    -895.390     -31.515
  C     1096.286    -895.110     -30.155
  O     1096.805    -894.130     -29.642
  N     1095.524    -895.960     -29.391
  C     1095.005    -897.020     -29.938
  N     1094.298    -897.860     -29.131
  C     1095.150    -897.360     -31.367
  C     1095.894    -896.510     -32.079
  O     1097.296    -899.520     -35.251
  O     1097.212    -897.390     -36.698
  H     1099.169    -892.830     -32.827
  H     1096.394    -897.150     -36.207
  H     1094.722    -898.250     -31.758
  H     1096.065    -896.700     -33.135
  H     1096.845    -893.480     -32.248
  H     1098.861    -894.640     -30.660
  H     1099.203    -896.390     -32.318
  H     1099.164    -894.040     -34.334
  H     1094.246    -897.610     -28.149
  H     1098.456    -895.790     -35.974
  H     1094.106    -898.820     -29.407
  H     1100.091    -896.070     -35.330
  P     1101.730    -895.920     -31.470
  C     1102.310    -898.120     -32.736
  O     1101.587    -897.510     -31.683
  O     1100.839    -895.640     -30.168
  O     1103.153    -895.450     -31.319
  H     1101.156    -894.850     -29.700
  H     1102.109    -899.171     -32.744
  H     1103.358    -897.958     -32.590
  H     1102.010    -897.692     -33.670

 6  7  8  9  10  11  12  13  14  15  16  26  30  31  32  33  35 0
 6-311+G(2d,p)
 ****
 37  38 0
 6-311+G(2d,p)
 ****
 1  2  3  4  5  17  18  19  20  21  22  23  24  25 0
 3-21G
 ****
 27  28  29  34  36  39  40  41  42  43  44  45  46 0
 3-21G
 ****


