%nproc=1
%NoSave
%Mem=1900MB
#P OB98/GEN NMR

erre ene a

0 1
  C      -54.430     152.496     245.645
  O      -53.175     153.130     245.470
  H      -54.918     152.920     246.526
  H      -54.304     151.421     245.803
  H      -55.065     152.668     244.773
  P      -52.197     152.571     244.330
  C      -49.926     153.330     243.352
  O      -51.005     153.635     244.228
  C      -49.009     154.540     243.208
  O      -49.739     155.657     242.662
  C      -48.440     155.023     244.534
  O      -47.400     154.175     244.976
  C      -48.025     156.435     244.170
  O      -46.770     156.447     243.478
  C      -49.177     156.863     243.231
  N      -50.201     157.645     243.916
  C      -50.044     159.035     243.871
  O      -49.091     159.536     243.276
  N      -50.963     159.818     244.524
  C      -51.957     159.268     245.148
  N      -52.832     160.100     245.774
  C      -52.167     157.810     245.207
  C      -51.258     157.066     244.580
  O      -52.823     152.217     243.017
  O      -51.497     151.309     245.023
  H      -46.556     157.390     243.332
  H      -52.018     150.500     244.864
  H      -53.013     157.396     245.735
  H      -51.339     155.984     244.572
  H      -48.792     157.459     242.395
  H      -47.923     157.062     245.053
  H      -49.236     155.086     245.284
  H      -48.208     154.285     242.503
  H      -52.643     161.095     245.715
  H      -50.361     153.066     242.382
  H      -53.685     159.793     246.213
  H      -49.359     152.469     243.722
  P      -47.031     154.080     246.534
  C      -45.514     152.404     247.773
  O      -46.493     152.583     246.754
  O      -48.104     154.520     247.471
  O      -45.695     154.957     246.643
  H      -45.892     155.923     246.583
  H      -45.236     151.372     247.823
  H      -45.919     152.711     248.715
  H      -44.651     152.995     247.546

 6  7  8  9  10  11  12  13  14  15  16  26  30  31  32  33  35 0
 6-311+G(2d,p)
 ****
 37  38 0
 6-311+G(2d,p)
 ****
 1  2  3  4  5  17  18  19  20  21  22  23  24  25 0
 3-21G
 ****
 27  28  29  34  36  39  40  41  42  43  44  45  46 0
 3-21G
 ****


