%nproc=1
%NoSave
%Mem=1900MB
#P OB98/GEN NMR

erre ene a

0 1
  C      130.676      53.458    -101.828
  O      130.307      52.420    -100.945
  P      130.803      52.340     -99.429
  C      133.334      52.650     -99.928
  O      132.316      51.793     -99.425
  C      134.648      52.548     -99.140
  O      134.392      52.809     -97.745
  C      135.200      51.121     -99.219
  O      135.968      50.716    -100.333
  C      135.853      50.875     -97.864
  O      137.268      51.070     -97.895
  C      135.189      51.911     -96.957
  N      134.807      50.698     -92.050
  C      135.708      51.542     -92.670
  N      136.744      51.958     -91.910
  N      135.607      51.916     -93.918
  C      134.573      51.340     -94.572
  C      133.609      50.502     -94.062
  C      133.707      50.130     -92.672
  O      132.978      49.318     -92.107
  N      132.754      50.055     -95.037
  C      133.222      50.588     -96.145
  N      134.349      51.344     -95.920
  O      129.838      51.782     -98.434
  O      131.007      53.902     -99.079
  H      137.621      50.576     -98.658
  H      130.776      54.024     -98.139
  H      134.980      50.381     -91.104
  H      132.809      50.433     -97.135
  H      135.945      52.524     -96.453
  H      135.692      49.840     -97.540
  H      136.932      51.576     -90.993
  H      134.333      50.448     -99.238
  H      137.510      52.436     -92.375
  H      135.359      53.313     -99.460
  H      132.945      53.672     -99.900
  H      133.527      52.409    -100.978
  P      135.491      49.751    -101.516
  C      135.223      47.563    -100.217
  O      135.984      48.264    -101.185
  O      136.414      50.161    -102.759
  O      134.047      49.868    -101.880
  H      135.981      49.897    -103.592
  H      135.804      46.713     -99.854
  H      134.300      47.193    -100.677
  H      134.971      48.212     -99.373
  H      130.221      53.293    -102.782
  H      131.740      53.471    -101.938
  H      130.346      54.396    -101.433

 3  4  5  6  7  8  9  10  11  12  23  26  30  31 0
 6-311+G(2d,p)
 ****
 33  35  36  37  38 0
 6-311+G(2d,p)
 ****
 1  2  13  14  15  16  17  18  19  20  21  22  24  25 0
 3-21G
 ****
 27  28  29  32  34  39  40  41  42  43  44  45  46  47  48  49 0
 3-21G
 ****


