%nproc=1
%NoSave
%Mem=1900MB
#P OB98/GEN NMR

erre ene a

0 1
  C     -489.244    -498.344      13.530
  O     -489.140    -498.928      14.813
  H     -489.888    -497.462      13.596
  H     -489.687    -499.058      12.828
  H     -488.258    -498.034      13.173
  P     -488.196    -500.220      14.934
  C     -489.943    -501.815      13.835
  O     -489.188    -501.482      14.992
  C     -491.273    -502.459      14.245
  O     -491.002    -503.781      14.795
  C     -492.033    -501.668      15.325
  O     -493.445    -501.887      15.140
  C     -491.583    -502.369      16.596
  O     -492.442    -502.055      17.663
  C     -491.597    -503.815      16.110
  N     -491.676    -506.243      20.594
  C     -492.600    -505.484      19.959
  N     -492.501    -504.877      18.759
  C     -491.313    -505.144      18.194
  C     -490.274    -505.895      18.715
  C     -490.487    -506.460      19.985
  N     -489.543    -507.210      20.646
  N     -489.201    -505.913      17.839
  C     -489.591    -505.191      16.807
  N     -490.861    -504.709      16.976
  O     -487.626    -500.115      16.426
  O     -487.106    -500.323      13.924
  H     -493.365    -502.322      17.467
  H     -486.773    -499.644      16.426
  H     -493.538    -505.349      20.493
  H     -489.000    -504.977      15.925
  H     -492.613    -504.216      16.011
  H     -490.574    -502.056      16.878
  H     -491.824    -500.594      15.310
  H     -491.890    -502.607      13.350
  H     -489.359    -502.510      13.229
  H     -490.138    -500.909      13.257
  H     -489.763    -507.556      21.565
  H     -488.637    -507.351      20.216
  P     -494.358    -500.681      14.602
  C     -496.317    -501.150      16.265
  O     -495.907    -500.965      14.920
  O     -494.295    -500.899      13.013
  O     -493.881    -499.310      14.955
  H     -494.131    -500.042      12.576
  H     -497.372    -501.327      16.295
  H     -496.086    -500.272      16.832
  H     -495.802    -501.990      16.682

 6  7  8  9  10  11  12  13  14  15  25  28  32  33  34  35 0
 6-311+G(2d,p)
 ****
 36  37  40 0
 6-311+G(2d,p)
 ****
 1  2  3  4  5  16  17  18  19  20  21  22  23  24 0
 3-21G
 ****
 26  27  29  30  31  38  39 41  42  43  44  45  46  47  48 0
 3-21G
 ****


