%nproc=1
%NoSave
%Mem=1900MB
#P OB98/GEN NMR

erre ene a

0 1
  C       24.582      64.722     -65.243
  O       23.925      63.508     -65.554
  H       24.450      64.932     -64.179
  H       24.143      65.540     -65.822
  H       25.652      64.646     -65.460
  P       24.195      62.904     -67.013
  C       23.220      63.414     -69.394
  O       23.473      63.875     -68.073
  C       22.730      64.567     -70.267
  O       23.747      65.580     -70.392
  C       22.432      64.178     -71.706
  O       21.248      63.420     -71.830
  C       22.343      65.552     -72.357
  O       21.041      66.128     -72.204
  C       23.398      66.360     -71.562
  N       24.555      66.684     -72.376
  C       24.271      67.089     -73.688
  O       23.102      67.169     -74.069
  N       25.315      67.353     -74.535
  C       26.535      67.199     -74.122
  N       27.524      67.447     -75.023
  C       26.878      66.773     -72.749
  C       25.849      66.533     -71.937
  O       23.272      61.599     -67.024
  O       25.631      62.640     -67.324
  H       20.409      65.485     -72.587
  H       22.362      61.761     -66.726
  H       27.912      66.673     -72.451
  H       26.010      66.216     -70.913
  H       22.964      67.300     -71.194
  H       22.545      65.502     -73.431
  H       23.291      63.649     -72.140
  H       21.850      65.012     -69.783
  H       27.244      67.683     -75.968
  H       22.481      62.606     -69.384
  H       28.503      67.285     -74.838
  H       24.155      63.005     -69.789
  P       21.004      62.456     -73.085
  C       20.093      62.786     -75.474
  O       20.701      63.408     -74.347
  O       19.998      61.376     -72.876
  O       22.476      61.920     -73.422
  H       23.124      62.613     -73.642
  H       19.942      63.513     -76.244
  H       19.150      62.370     -75.186
  H       20.730      62.008     -75.839

 6  7  8  9  10  11  12  13  14  15  16  26  30  31  32  33  35 0
 6-311+G(2d,p)
 ****
 37  38 0
 6-311+G(2d,p)
 ****
 1  2  3  4  5  17  18  19  20  21  22  23  24  25 0
 3-21G
 ****
 27  28  29  34  36  39  40  41  42  43  44  45  46 0
 3-21G
 ****


