%nproc=1
%NoSave
%Mem=1900MB
#P OB98/GEN NMR

erre ene a

0 1
  C     -541.119    -167.174     327.721
  O     -542.251    -166.897     328.554
  P     -542.059    -167.061     330.138
  C     -544.547    -167.681     330.682
  O     -543.491    -166.735     330.781
  C     -545.871    -167.033     331.079
  O     -545.782    -166.474     332.413
  C     -546.294    -165.879     330.189
  O     -546.784    -166.345     328.939
  C     -547.333    -165.195     331.066
  O     -548.590    -165.885     330.981
  C     -546.727    -165.376     332.478
  N     -546.108    -164.165     332.990
  C     -546.858    -163.442     333.913
  O     -547.987    -163.780     334.270
  N     -546.273    -162.309     334.402
  C     -545.049    -161.814     334.046
  O     -544.572    -160.795     334.524
  C     -544.325    -162.592     333.026
  C     -544.875    -163.714     332.554
  O     -541.171    -165.780     330.474
  O     -541.456    -168.371     330.519
  H     -541.393    -165.006     329.927
  H     -548.452    -166.768     331.391
  H     -546.797    -161.776     335.085
  H     -543.364    -162.222     332.701
  H     -544.357    -164.297     331.800
  H     -547.506    -165.689     333.184
  H     -547.508    -164.155     330.777
  H     -545.444    -165.203     330.023
  H     -546.647    -167.812     331.087
  H     -544.347    -168.532     331.345
  H     -544.585    -168.064     329.656
  P     -546.171    -165.657     327.621
  C     -548.191    -164.933     326.120
  O     -547.226    -165.917     326.443
  O     -544.965    -166.655     327.280
  O     -545.759    -164.237     327.816
  H     -545.210    -167.592     327.360
  H     -548.564    -165.126     325.112
  H     -547.757    -163.928     326.146
  H     -549.022    -164.991     326.823
  H     -541.386    -167.026     326.696
  H     -540.809    -168.188     327.866
  H     -540.316    -166.515     327.979

 3  4  5  6  7  8  9  10  11  12  13  24  28  29  30  31  32 0
 6-311+G(2d,p)
 ****
 33  34 0
 6-311+G(2d,p)
 ****
 1  2  14  15  16  17  18  19  20  21  22  23  25  26  27 0
 3-21G
 ****
 35  36  37  38  39  40  41  42  43  44  45 0
 3-21G
 ****


