%nproc=1
%NoSave
%Mem=1900MB
#P OB98/GEN NMR

erre ene a

0 1
  C     -500.249     277.556      29.525
  O     -498.863     277.534      29.809
  P     -497.804     277.976      28.693
  C     -497.697     280.544      28.658
  O     -497.119     279.348      29.165
  C     -496.899     281.761      29.112
  O     -496.976     281.916      30.549
  C     -495.414     281.678      28.804
  O     -495.143     281.864      27.427
  C     -494.864     282.767      29.719
  O     -495.033     284.063      29.130
  C     -495.775     282.617      30.958
  N     -495.110     281.938      32.056
  C     -494.290     282.731      32.866
  O     -494.095     283.913      32.584
  N     -493.702     282.155      33.965
  C     -493.821     280.880      34.169
  N     -493.268     280.380      35.304
  C     -494.546     279.981      33.245
  C     -495.177     280.574      32.235
  O     -498.318     277.985      27.294
  O     -496.612     276.917      28.849
  H     -496.400     276.552      27.970
  H     -494.578     284.037      28.265
  H     -494.557     278.915      33.423
  H     -495.753     279.996      31.520
  H     -496.108     283.604      31.302
  H     -493.796     282.639      29.924
  H     -495.024     280.704      29.124
  H     -497.340     282.654      28.646
  H     -492.796     281.028      35.921
  H     -498.725     280.618      29.023
  H     -493.571     279.499      35.715
  H     -497.728     280.491      27.562
  P     -493.817     281.173      26.848
  C     -494.939     278.918      26.254
  O     -494.272     280.071      25.781
  O     -493.281     280.308      28.083
  O     -492.777     282.132      26.365
  H     -492.306     280.319      28.096
  H     -495.478     278.459      25.419
  H     -495.652     279.162      27.045
  H     -494.203     278.202      26.633
  H     -500.795     277.230      30.386
  H     -500.455     276.902      28.703
  H     -500.545     278.552      29.271

 3  4  5  6  7  8  9  10  11  12  13  24  27  28  29  30  32 0
 6-311+G(2d,p)
 ****
 34  35 0
 6-311+G(2d,p)
 ****
 1  2  14  15  16  17  18  19  20  21  22  23  25  26 0
 3-21G
 ****
 31  33  36  37  38  39  40  41  42  43  44  45  46 0
 3-21G
 ****


