%nproc=1
%NoSave
%Mem=1900MB
#P OB98/GEN NMR

erre ene a

0 1
  C       10.336     -79.478     445.582
  O       10.762     -79.093     444.289
  H       10.403     -80.565     445.680
  H       10.996     -79.017     446.321
  H        9.312     -79.149     445.770
  P        9.769     -79.402     443.068
  C       10.909     -81.709     442.721
  O       10.519     -80.476     442.134
  C       12.132     -82.278     442.004
  O       11.738     -82.669     440.657
  C       13.311     -81.297     441.883
  O       14.525     -82.025     442.069
  C       13.227     -80.829     440.443
  O       14.480     -80.387     439.932
  C       12.692     -82.080     439.753
  N       13.560     -79.918     435.234
  C       14.394     -80.364     436.194
  N       14.079     -80.981     437.349
  C       12.753     -81.183     437.436
  C       11.779     -80.792     436.537
  C       12.228     -80.109     435.393
  N       11.381     -79.588     434.440
  N       10.523     -81.129     437.007
  C       10.737     -81.689     438.180
  N       12.070     -81.744     438.484
  O        9.840     -78.048     442.215
  O        8.369     -79.749     443.448
  H       15.135     -81.107     440.034
  H        9.177     -77.416     442.548
  H       15.452     -80.197     436.017
  H        9.971     -82.041     438.858
  H       13.477     -82.820     439.548
  H       12.513     -80.002     440.366
  H       13.265     -80.465     442.597
  H       12.444     -83.193     442.522
  H       10.083     -82.420     442.638
  H       11.788     -79.022     433.711
  H       10.385     -79.625     434.599
  H       11.130     -81.552     443.783
  P       14.963     -82.369     443.574
  C       15.572     -79.875     444.022
  O       15.980     -81.235     444.077
  O       15.896     -83.656     443.400
  O       13.813     -82.639     444.487
  H       15.809     -84.244     444.170
  H       16.359     -79.251     444.391
  H       14.698     -79.740     444.625
  H       15.351     -79.609     443.009

 6  7  8  9  10  11  12  13  14  15  25  28  32  33  34  35 0
 6-311+G(2d,p)
 ****
 36  39  40 0
 6-311+G(2d,p)
 ****
 1  2  3  4  5  16  17  18  19  20  21  22  23  24 0
 3-21G
 ****
 26  27  29  30  31  37  38  41  42  43  44  45  46  47 0
 3-21G
 ****
 48 0
 3-21G
 ****


