%nproc=1
%NoSave
%Mem=1900MB
#P OB98/GEN NMR

erre ene a

0 1
  C      405.396    -890.540     855.760
  O      406.788    -890.710     855.638
  P      407.384    -891.620     854.438
  C      408.921    -893.020     855.966
  O      407.771    -893.030     855.099
  C      409.382    -894.470     856.245
  O      408.344    -895.210     856.953
  C      409.628    -895.270     854.964
  O      410.715    -894.890     854.158
  C      409.662    -896.690     855.539
  O      410.947    -896.990     856.122
  C      408.597    -896.620     856.660
  N      407.349    -897.300     856.263
  C      407.075    -898.470     856.940
  O      407.803    -898.950     857.802
  N      405.934    -899.130     856.555
  C      405.092    -898.750     855.538
  O      404.099    -899.420     855.234
  C      405.444    -897.480     854.849
  C      406.546    -896.840     855.225
  O      408.478    -890.980     853.638
  O      406.076    -891.990     853.586
  H      411.574    -897.120     855.396
  H      405.390    -892.470     854.078
  H      405.715    -900.000     857.016
  H      404.799    -897.170     854.079
  H      406.833    -895.910     854.731
  H      408.964    -897.080     857.578
  H      409.486    -897.460     854.777
  H      408.728    -895.210     854.331
  H      410.267    -894.420     856.877
  H      408.628    -892.550     856.918
  H      409.731    -892.440     855.508
  P      410.942    -895.470     852.684
  C      413.332    -896.470     852.985
  O      411.934    -896.740     852.791
  O      411.209    -894.500     851.585
  O      409.526    -896.210     852.384
  H      409.353    -896.170     851.416
  H      413.834    -897.450     853.000
  H      413.492    -895.960     853.959
  H      413.711    -895.890     852.176
  H      405.186    -889.914     856.602
  H      404.931    -891.494     855.900
  H      405.013    -890.083     854.871

 3  4  5  6  7  8  9  10  11  12  13  23  28  29  30  31  32 0
 6-311+G(2d,p)
 ****
 33  34 0
 6-311+G(2d,p)
 ****
 1  2  14  15  16  17  18  19  20  21  22  24  25  26  27 0
 3-21G
 ****
 35  36  37  38  39  40  41  42  43  44  45 0
 3-21G
 ****


