%nproc=1
%NoSave
%Mem=1900MB
#P OB98/GEN NMR

erre ene a

0 1
  C      167.847     -56.394    -171.274
  O      167.865     -55.415    -172.295
  H      167.924     -57.382    -171.738
  H      166.918     -56.346    -170.702
  H      168.702     -56.253    -170.608
  P      167.487     -53.906    -171.901
  C      165.530     -53.875    -173.581
  O      166.772     -53.290    -173.204
  C      164.611     -52.849    -174.244
  O      164.492     -51.669    -173.422
  C      165.115     -52.339    -175.585
  O      165.133     -53.303    -176.613
  C      164.292     -51.073    -175.767
  O      162.990     -51.338    -176.288
  C      164.184     -50.567    -174.307
  N      165.045     -49.418    -174.053
  C      164.487     -48.170    -174.310
  O      163.347     -48.012    -174.748
  N      165.301     -47.095    -174.079
  C      166.601     -47.147    -173.672
  O      167.285     -46.145    -173.503
  C      167.149     -48.497    -173.452
  C      166.357     -49.553    -173.650
  O      168.618     -53.070    -171.377
  O      166.275     -54.071    -170.871
  H      162.495     -50.498    -176.260
  H      166.116     -53.232    -170.369
  H      164.909     -46.180    -174.246
  H      168.180     -48.578    -173.139
  H      166.738     -50.560    -173.492
  H      163.149     -50.271    -174.084
  H      164.773     -50.362    -176.442
  H      166.155     -52.015    -175.460
  H      163.614     -53.292    -174.334
  H      165.050     -54.255    -172.673
  H      165.713     -54.714    -174.263
  P      166.221     -53.334    -177.778
  C      164.579     -52.133    -179.420
  O      165.463     -53.224    -179.186
  O      167.315     -54.343    -177.647
  O      166.888     -51.870    -177.641
  H      167.833     -51.961    -177.877
  H      164.163     -52.216    -180.402
  H      165.119     -51.213    -179.337
  H      163.791     -52.151    -178.696

 6  7  8  9  10  11  12  13  14  15  16  26  31  32  33  34  35 0
 6-311+G(2d,p)
 ****
 36  37 0
 6-311+G(2d,p)
 ****
 1  2  3  4  5  17  18  19  20  21  22  23  24  25 0
 3-21G
 ****
 27  28  29  30  38  39  40  41  42  43  44  45 0
 3-21G
 ****


