%nproc=1
%NoSave
%Mem=1900MB
#P OB98/GEN NMR

erre ene a

0 1
  C      441.884     260.177     425.289
  O      440.774     260.076     424.424
  H      441.905     261.181     425.716
  H      442.807     260.013     424.730
  H      441.806     259.450     426.103
  P      440.438     258.614     423.848
  C      440.359     257.840     426.326
  O      440.817     257.570     425.006
  C      439.526     256.671     426.844
  O      438.334     256.509     426.043
  C      440.246     255.329     426.813
  O      441.086     255.153     427.948
  C      439.059     254.375     426.860
  O      438.545     254.303     428.204
  C      438.054     255.084     425.944
  N      435.615     252.822     422.119
  C      435.210     253.040     423.425
  N      433.986     252.582     423.761
  N      435.943     253.649     424.319
  C      437.148     254.041     423.844
  C      437.656     253.882     422.574
  C      436.837     253.216     421.590
  O      437.134     253.020     420.419
  N      438.914     254.425     422.466
  C      439.171     254.891     423.675
  N      438.137     254.676     424.547
  O      441.585     258.377     422.751
  O      439.080     258.453     423.254
  H      438.316     255.214     428.464
  H      441.207     257.871     422.005
  H      435.013     252.334     421.473
  H      440.090     255.389     423.962
  H      437.021     254.928     426.265
  H      439.325     253.361     426.561
  H      433.392     252.063     423.132
  H      440.791     255.184     425.875
  H      433.652     252.756     424.701
  H      439.201     256.913     427.866
  H      439.744     258.747     426.313
  H      441.222     258.007     426.978
  P      442.311     254.119     427.811
  C      443.844     255.841     426.610
  O      443.143     254.607     426.528
  O      441.599     252.781     427.303
  O      443.095     253.905     429.059
  H      442.146     252.004     427.528
  H      444.346     256.028     425.684
  H      444.562     255.791     427.401
  H      443.151     256.632     426.806

 6  7  8  9  10  11  12  13  14  15  26  29  33  34 0
 6-311+G(2d,p)
 ****
 36  38  39  40  41 0
 6-311+G(2d,p)
 ****
 1  2  3  4  5  16  17  18  19  20  21  22  23  24  25 0
 3-21G
 ****
 27  28  30  31  32  35  37  42  43  44  45  46  47 0
 3-21G
 ****
 48  49 0
 3-21G
 ****


