%nproc=1
%NoSave
%Mem=1900MB
#P OB98/GEN NMR

erre ene a

0 1
  C     -231.338    -896.519     -59.897
  O     -231.977    -896.279     -61.135
  H     -231.838    -897.359     -59.406
  H     -231.411    -895.639     -59.250
  H     -230.285    -896.779     -60.052
  P     -231.377    -895.089     -62.024
  C     -230.798    -896.559     -64.100
  O     -230.318    -895.769     -63.013
  C     -229.969    -896.309     -65.363
  O     -230.196    -894.929     -65.796
  C     -228.451    -896.459     -65.157
  O     -227.870    -896.869     -66.409
  C     -228.028    -895.019     -64.856
  O     -226.634    -894.869     -64.940
  C     -228.900    -894.279     -65.863
  N     -226.414    -889.829     -65.531
  C     -226.015    -891.049     -65.912
  N     -226.724    -892.189     -65.989
  C     -228.016    -891.969     -65.639
  C     -228.586    -890.769     -65.264
  C     -227.723    -889.649     -65.206
  N     -228.141    -888.399     -64.822
  N     -229.923    -890.929     -64.982
  C     -230.165    -892.199     -65.201
  N     -229.032    -892.869     -65.587
  O     -230.453    -894.279     -60.984
  O     -232.380    -894.209     -62.687
  H     -226.186    -895.509     -64.337
  H     -230.955    -893.529     -60.622
  H     -224.958    -891.149     -66.183
  H     -231.127    -892.679     -65.084
  H     -228.520    -894.399     -66.889
  H     -228.318    -894.749     -63.819
  H     -228.179    -897.179     -64.371
  H     -230.330    -896.949     -66.170
  H     -231.839    -896.309     -64.280
  H     -230.723    -897.629     -63.812
  H     -227.454    -887.663     -64.789
  H     -229.097    -888.259     -64.543
  P     -227.021    -898.229     -66.480
  C     -228.677    -899.129     -68.295
  O     -227.951    -899.379     -67.099
  O     -226.960    -898.659     -64.932
  O     -225.648    -898.109     -67.063
  H     -226.144    -899.199     -64.782
  H     -229.239    -900.000     -68.560
  H     -227.994    -898.892     -69.084
  H     -229.344    -898.307     -68.142

 6  7  8  9  10  11  12  13  14  15  25  28  32  33  34  35 0
 6-311+G(2d,p)
 ****
 36  37  40 0
 6-311+G(2d,p)
 ****
 1  2  3  4  5  16  17  18  19  20  21  22  23  24 0
 3-21G
 ****
 26  27  29  30  31  38  39 41  42  43  44  45  46  47  48 0
 3-21G
 ****


