%nproc=1
%NoSave
%Mem=1900MB
#P OB98/GEN NMR

erre ene a

0 1
  C      -53.078      20.360     398.683
  O      -51.720      20.721     398.537
  H      -53.403      20.627     399.693
  H      -53.201      19.281     398.550
  H      -53.698      20.899     397.960
  P      -50.971      20.375     397.160
  C      -48.565      20.022     398.028
  O      -49.454      20.878     397.320
  C      -47.518      20.855     398.785
  O      -48.106      21.242     400.058
  C      -46.228      20.066     399.066
  O      -45.051      20.746     398.628
  C      -46.337      19.733     400.550
  O      -45.098      19.532     401.202
  C      -47.179      20.887     401.106
  N      -47.895      20.558     402.341
  C      -47.138      20.378     403.495
  O      -45.914      20.492     403.556
  N      -47.850      20.053     404.618
  C      -49.200      19.897     404.704
  O      -49.786      19.611     405.743
  C      -49.943      20.078     403.444
  C      -49.273      20.399     402.337
  O      -51.656      20.835     395.917
  O      -50.823      18.784     397.197
  H      -44.476      20.210     400.866
  H      -51.495      18.377     396.612
  H      -47.312      19.933     405.461
  H      -51.021      19.953     403.473
  H      -49.789      20.538     401.393
  H      -46.548      21.757     401.312
  H      -46.907      18.801     400.655
  H      -46.208      19.133     398.496
  H      -47.317      21.773     398.221
  H      -48.068      19.372     397.301
  H      -49.129      19.405     398.736
  P      -43.794      20.037     397.948
  C      -41.959      21.585     399.008
  O      -42.609      21.110     397.841
  O      -44.087      19.225     396.730
  O      -43.274      19.024     399.093
  H      -42.910      18.238     398.634
  H      -41.202      22.290     398.733
  H      -41.510      20.763     399.526
  H      -42.674      22.061     399.646

 6  7  8  9  10  11  12  13  14  15  16  26  31  32  33  34  35 0
 6-311+G(2d,p)
 ****
 36  37 0
 6-311+G(2d,p)
 ****
 1  2  3  4  5  17  18  19  20  21  22  23  24  25 0
 3-21G
 ****
 27  28  29  30  38  39  40  41  42  43  44  45 0
 3-21G
 ****


