%nproc=1
%NoSave
%Mem=1900MB
#P OB98/GEN NMR

erre ene a

0 1
  C     -141.872    -510.139     449.034
  O     -142.718    -509.799     447.956
  H     -141.099    -509.383     449.170
  H     -142.469    -510.193     449.952
  H     -141.414    -511.118     448.867
  P     -142.022    -509.634     446.522
  C     -143.505    -511.538     445.551
  O     -142.184    -511.043     445.763
  C     -143.464    -513.034     445.228
  O     -142.608    -513.684     446.217
  C     -144.836    -513.730     445.250
  O     -145.088    -514.346     443.982
  C     -144.688    -514.823     446.294
  O     -145.309    -516.050     445.930
  C     -143.171    -514.980     446.447
  N     -142.305    -519.188     449.199
  C     -142.277    -518.973     447.863
  N     -142.407    -517.799     447.200
  C     -142.572    -516.780     448.058
  C     -142.610    -516.846     449.443
  C     -142.489    -518.127     450.019
  N     -142.600    -518.362     451.363
  N     -142.813    -515.592     449.995
  C     -142.938    -514.783     448.964
  N     -142.813    -515.465     447.760
  O     -140.462    -509.570     446.875
  O     -142.460    -508.444     445.735
  H     -146.261    -515.858     445.837
  H     -140.047    -508.829     446.399
  H     -142.109    -519.841     447.251
  H     -143.162    -513.729     449.005
  H     -142.763    -515.664     445.697
  H     -145.140    -514.482     447.243
  H     -145.653    -513.054     445.507
  H     -142.986    -513.164     444.253
  H     -143.974    -511.010     444.701
  H     -142.607    -519.323     451.693
  H     -142.833    -517.586     451.978
  H     -144.108    -511.346     446.442
  P     -145.903    -513.471     442.911
  C     -143.820    -512.974     441.414
  O     -144.873    -512.452     442.237
  O     -146.821    -512.523     443.822
  O     -146.725    -514.289     441.964
  H     -147.634    -512.257     443.349
  H     -143.224    -512.167     441.043
  H     -144.243    -513.512     440.592
  H     -143.207    -513.632     441.994

 6  7  8  9  10  11  12  13  14  15  25  28  32  33  34  35 0
 6-311+G(2d,p)
 ****
 36  39  40 0
 6-311+G(2d,p)
 ****
 1  2  3  4  5  16  17  18  19  20  21  22  23  24 0
 3-21G
 ****
 26  27  29  30  31  37  38  41  42  43  44  45  46  47  48 0
 3-21G
 ****


