%nproc=1
%NoSave
%Mem=1900MB
#P OB98/GEN NMR

erre ene a

0 1
  C     -345.091     242.703      96.956
  O     -345.751     242.723      98.205
  H     -344.634     241.719      96.813
  H     -344.301     243.459      96.943
  H     -345.799     242.885      96.146
  P     -346.642     244.018      98.534
  C     -344.785     245.037     100.087
  O     -345.593     245.167      98.934
  C     -343.824     246.229     100.213
  O     -344.601     247.407     100.567
  C     -342.748     246.040     101.289
  O     -341.545     246.664     100.831
  C     -343.299     246.808     102.475
  O     -342.272     247.203     103.379
  C     -344.038     247.963     101.772
  N     -345.062     248.564     102.619
  C     -344.965     249.946     102.841
  O     -344.043     250.590     102.334
  N     -345.890     250.551     103.652
  C     -346.793     249.843     104.245
  N     -347.662     250.499     105.054
  C     -346.901     248.379     104.081
  C     -346.025     247.810     103.252
  O     -347.313     243.613      99.926
  O     -347.613     244.384      97.460
  H     -342.690     247.635     104.160
  H     -346.692     243.205     100.552
  H     -347.672     247.824     104.609
  H     -346.038     246.747     103.072
  H     -343.327     248.748     101.475
  H     -344.012     246.186     103.030
  H     -342.558     244.981     101.516
  H     -343.380     246.417      99.235
  H     -347.538     251.501     105.158
  H     -344.206     244.108     100.042
  H     -348.371     250.043     105.614
  H     -345.439     244.980     100.961
  P     -340.394     245.778     100.167
  C     -338.654     245.699     102.075
  O     -339.616     244.975     101.322
  O     -339.526     246.468      99.175
  O     -341.235     244.599      99.446
  H     -340.820     244.425      98.580
  H     -338.213     245.053     102.805
  H     -339.131     246.520     102.567
  H     -337.893     246.069     101.420

 6  7  8  9  10  11  12  13  14  15  16  26  30  31  32  33  35 0
 6-311+G(2d,p)
 ****
 37  38 0
 6-311+G(2d,p)
 ****
 1  2  3  4  5  17  18  19  20  21  22  23  24  25 0
 3-21G
 ****
 27  28  29  34  36  39  40  41  42  43  44  45  46 0
 3-21G
 ****


