%nproc=1
%NoSave
%Mem=1900MB
#P OB98/GEN NMR

erre ene a

0 1
  C     -540.812     342.978     -18.541
  O     -539.630     342.625     -19.226
  H     -540.781     344.045     -18.312
  H     -540.877     342.422     -17.600
  H     -541.692     342.774     -19.155
  P     -539.527     341.131     -19.803
  C     -537.145     340.187     -19.370
  O     -537.999     340.913     -20.245
  C     -535.753     340.825     -19.329
  O     -535.105     340.609     -20.610
  C     -535.774     342.330     -19.060
  O     -534.664     342.660     -18.218
  C     -535.564     342.950     -20.433
  O     -534.994     344.257     -20.375
  C     -534.679     341.893     -21.116
  N     -534.780     341.968     -22.573
  C     -534.177     343.072     -23.182
  O     -533.612     343.930     -22.502
  N     -534.289     343.209     -24.540
  C     -535.003     342.366     -25.226
  N     -535.098     342.577     -26.565
  C     -535.708     341.223     -24.602
  C     -535.550     341.083     -23.289
  O     -540.301     341.217     -21.200
  O     -540.072     340.063     -18.912
  H     -534.811     344.553     -21.295
  H     -540.739     340.369     -21.414
  H     -536.313     340.567     -25.207
  H     -536.031     340.276     -22.746
  H     -533.631     342.029     -20.825
  H     -536.528     343.020     -20.950
  H     -536.701     342.676     -18.593
  H     -535.151     340.299     -18.574
  H     -534.610     343.377     -26.947
  H     -537.056     339.160     -19.738
  H     -535.668     342.009     -27.183
  H     -537.588     340.168     -18.366
  P     -535.005     343.470     -16.871
  C     -532.868     344.886     -16.438
  O     -533.624     343.732     -16.094
  O     -535.757     342.384     -15.968
  O     -535.848     344.683     -17.097
  H     -536.706     342.600     -15.906
  H     -531.982     344.923     -15.840
  H     -533.455     345.763     -16.261
  H     -532.598     344.840     -17.472

 6  7  8  9  10  11  12  13  14  15  16  26  30  31  32  33  35 0
 6-311+G(2d,p)
 ****
 37  38 0
 6-311+G(2d,p)
 ****
 1  2  3  4  5  17  18  19  20  21  22  23  24  25 0
 3-21G
 ****
 27  28  29  34  36  39  40  41  42  43  44  45  46 0
 3-21G
 ****


