%nproc=1
%NoSave
%Mem=1900MB
#P OB98/GEN NMR

erre ene a

0 1
  C      -49.668     -49.441      82.727
  O      -49.232     -50.300      83.785
  P      -50.075     -51.643      84.040
  C      -48.623     -53.599      83.090
  O      -48.991     -52.816      84.212
  C      -47.303     -54.334      83.348
  O      -46.238     -53.365      83.586
  C      -47.336     -55.294      84.543
  O      -46.534     -56.429      84.186
  C      -46.659     -54.495      85.641
  O      -46.138     -55.331      86.665
  C      -45.606     -53.733      84.829
  N      -45.084     -52.566      85.534
  C      -44.013     -51.903      84.948
  O      -43.456     -52.306      83.928
  N      -43.569     -50.786      85.601
  C      -44.033     -50.323      86.800
  O      -43.598     -49.315      87.342
  C      -45.091     -51.130      87.428
  C      -45.558     -52.198      86.777
  O      -50.712     -51.896      82.598
  O      -51.059     -51.510      85.155
  H      -50.116     -51.662      81.865
  H      -45.409     -55.871      86.296
  H      -42.812     -50.272      85.176
  H      -45.444     -50.828      88.406
  H      -46.320     -52.824      87.219
  H      -44.764     -54.392      84.583
  H      -47.375     -53.800      86.093
  H      -48.347     -55.621      84.799
  H      -47.040     -54.885      82.436
  H      -48.502     -52.955      82.213
  H      -49.431     -54.303      82.860
  P      -47.284     -57.769      83.703
  C      -47.964     -57.652      81.178
  O      -46.977     -57.943      82.141
  O      -48.805     -57.256      83.714
  O      -47.071     -58.963      84.573
  H      -48.919     -56.395      83.281
  H      -47.492     -57.604      80.194
  H      -48.443     -56.691      81.379
  H      -48.719     -58.444      81.167
  H      -49.021     -48.590      82.669
  H      -50.669     -49.116      82.921
  H      -49.640     -49.974      81.800

 3  4  5  6  7  8  9  10  11  12  13  24  28  29  30  31  32 0
 6-311+G(2d,p)
 ****
 33  34 0
 6-311+G(2d,p)
 ****
 1  2  14  15  16  17  18  19  20  21  22  23  25  26  27 0
 3-21G
 ****
 35  36  37  38  39  40  41  42  43  44  45 0
 3-21G
 ****


