%nproc=1
%NoSave
%Mem=1900MB
#P OB98/GEN NMR

erre ene a

0 1
  C     -875.409     161.044    -218.315
  O     -874.027     161.316    -218.188
  H     -875.535     160.011    -218.646
  H     -875.848     161.709    -219.062
  H     -875.916     161.171    -217.354
  P     -873.606     162.695    -217.496
  C     -872.420     163.213    -219.751
  O     -872.362     163.272    -218.333
  C     -871.011     163.069    -220.329
  O     -870.260     164.275    -220.022
  C     -870.224     161.878    -219.750
  O     -869.415     161.327    -220.793
  C     -869.327     162.534    -218.714
  O     -868.161     161.785    -218.401
  C     -869.024     163.869    -219.400
  N     -868.551     164.891    -218.462
  C     -867.198     164.876    -218.130
  O     -866.363     164.126    -218.633
  N     -866.824     165.784    -217.173
  C     -867.638     166.646    -216.512
  O     -867.240     167.413    -215.646
  C     -869.061     166.609    -216.900
  C     -869.439     165.744    -217.841
  O     -872.942     162.221    -216.120
  O     -874.720     163.672    -217.287
  H     -873.616     162.157    -215.417
  H     -867.740     162.203    -217.625
  H     -865.842     165.780    -216.917
  H     -869.737     167.278    -216.389
  H     -870.484     165.674    -218.130
  H     -868.283     163.732    -220.192
  H     -869.889     162.692    -217.780
  H     -870.852     161.097    -219.311
  H     -871.080     162.995    -221.417
  H     -872.866     164.142    -220.131
  H     -873.049     162.367    -220.053
  P     -870.031     160.125    -221.652
  C     -868.343     158.547    -220.409
  O     -868.923     158.970    -221.639
  O     -869.968     160.730    -223.126
  O     -871.391     159.717    -221.192
  H     -869.188     161.291    -223.271
  H     -867.629     157.773    -220.599
  H     -869.110     158.174    -219.763
  H     -867.855     159.376    -219.941

 6  7  8  9  10  11  12  13  14  15  16  27  31  32  33  34  35 0
 6-311+G(2d,p)
 ****
 36  37 0
 6-311+G(2d,p)
 ****
 1  2  3  4  5  17  18  19  20  21  22  23  24  25 0
 3-21G
 ****
 26  28  29  30  38  39  40  41  42  43  44  45 0
 3-21G
 ****


