%nproc=1
%NoSave
%Mem=1900MB
#P OB98/GEN NMR

erre ene a

0 1
  C      130.694     203.733     -64.649
  O      131.031     204.879     -63.893
  H      131.542     203.038     -64.666
  H      129.840     203.238     -64.180
  H      130.426     204.013     -65.671
  P      132.151     205.848     -64.507
  C      134.191     204.924     -63.185
  O      133.531     205.022     -64.439
  C      135.542     204.225     -63.349
  O      136.381     204.547     -62.207
  C      135.441     202.699     -63.437
  O      136.395     202.223     -64.387
  C      135.829     202.239     -62.042
  O      136.339     200.907     -62.031
  C      136.852     203.301     -61.647
  N      137.680     200.681     -57.339
  C      137.710     200.315     -58.641
  N      137.479     201.082     -59.729
  C      137.252     202.358     -59.372
  C      137.181     202.883     -58.089
  C      137.404     201.975     -57.038
  N      137.342     202.328     -55.709
  N      136.884     204.230     -58.129
  C      136.767     204.515     -59.415
  N      136.976     203.415     -60.202
  O      132.321     206.954     -63.352
  O      131.829     206.463     -65.823
  H      136.598     200.687     -61.110
  H      131.592     207.603     -63.417
  H      137.940     199.273     -58.833
  H      136.535     205.492     -59.819
  H      137.849     203.094     -62.043
  H      134.952     202.274     -61.379
  H      134.442     202.356     -63.716
  H      136.045     204.639     -64.234
  H      133.564     204.348     -62.493
  H      137.450     201.605     -55.015
  H      137.078     203.277     -55.461
  H      134.343     205.931     -62.775
  P      135.804     201.475     -65.683
  C      136.407     199.045     -65.026
  O      135.375     199.989     -65.268
  O      137.100     201.257     -66.606
  O      134.754     202.268     -66.401
  H      136.918     201.572     -67.512
  H      135.974     198.103     -64.760
  H      137.027     199.391     -64.225
  H      136.999     198.929     -65.910

 6  7  8  9  10  11  12  13  14  15  25  28  32  33  34  35 0
 6-311+G(2d,p)
 ****
 36  39  40 0
 6-311+G(2d,p)
 ****
 1  2  3  4  5  16  17  18  19  20  21  22  23  24 0
 3-21G
 ****
 26  27  29  30  31  37  38  41  42  43  44  45  46  47 0
 3-21G
 ****
 48 0
 3-21G
 ****


