%nproc=1
%NoSave
%Mem=1900MB
#P OB98/GEN NMR

erre ene a

0 1
  C     -222.640    -528.029    -116.535
  O     -223.422    -527.515    -117.595
  P     -224.032    -528.503    -118.708
  C     -223.946    -526.329    -120.105
  O     -224.635    -527.563    -119.865
  C     -224.733    -525.480    -121.092
  O     -224.825    -526.126    -122.384
  C     -226.180    -525.232    -120.691
  O     -226.413    -524.461    -119.532
  C     -226.777    -524.725    -121.985
  O     -226.482    -523.336    -122.181
  C     -226.012    -525.573    -123.033
  N     -226.852    -526.638    -123.594
  C     -228.050    -526.234    -124.156
  O     -228.421    -525.055    -124.208
  N     -228.850    -527.234    -124.656
  C     -228.590    -528.570    -124.596
  O     -229.382    -529.417    -125.021
  C     -227.307    -528.939    -123.972
  C     -226.510    -527.977    -123.515
  O     -224.974    -529.547    -118.191
  O     -222.734    -529.118    -119.417
  H     -226.844    -523.086    -123.056
  H     -222.134    -528.453    -119.833
  H     -229.733    -526.951    -125.058
  H     -227.064    -530.004    -123.931
  H     -225.546    -528.229    -123.045
  H     -225.651    -524.955    -123.863
  H     -227.858    -524.831    -122.023
  H     -226.644    -526.207    -120.482
  H     -224.196    -524.542    -121.240
  H     -222.972    -526.558    -120.523
  H     -223.782    -525.805    -119.159
  P     -227.431    -524.920    -118.364
  C     -228.256    -522.474    -118.101
  O     -227.753    -523.641    -117.465
  O     -227.106    -526.199    -117.648
  O     -228.795    -525.100    -119.179
  H     -229.320    -525.807    -118.755
  H     -228.383    -521.692    -117.353
  H     -229.239    -522.672    -118.552
  H     -227.553    -522.111    -118.848
  H     -222.326    -527.226    -115.901
  H     -221.780    -528.525    -116.934
  H     -223.222    -528.725    -115.967

 3  4  5  6  7  8  9  10  11  12  13  23  28  29  30  31  32 0
 6-311+G(2d,p)
 ****
 33  34 0
 6-311+G(2d,p)
 ****
 1  2  14  15  16  17  18  19  20  21  22  24  25  26  27 0
 3-21G
 ****
 35  36  37  38  39  40  41  42  43  44  45 0
 3-21G
 ****


