%nproc=1
%NoSave
%Mem=1900MB
#P OB98/GEN NMR

erre ene a

0 1
  C      210.354     -65.200     354.945
  O      209.844     -65.683     353.719
  H      210.923     -66.002     355.426
  H      209.542     -64.898     355.611
  H      211.026     -64.355     354.770
  P      208.874     -64.731     352.871
  C      209.993     -65.148     350.577
  O      208.838     -65.324     351.382
  C      210.209     -66.358     349.659
  O      210.797     -67.440     350.435
  C      208.913     -66.898     349.031
  O      209.257     -67.469     347.763
  C      208.531     -67.982     350.022
  O      207.552     -68.842     349.494
  C      209.910     -68.574     350.326
  N      209.915     -69.389     351.530
  C      209.135     -70.547     351.497
  O      208.480     -70.826     350.491
  N      209.089     -71.344     352.611
  C      209.714     -70.982     353.688
  N      209.614     -71.809     354.762
  C      210.502     -69.736     353.784
  C      210.563     -68.996     352.678
  O      209.161     -63.269     352.955
  O      207.412     -65.071     353.431
  H      207.234     -69.471     350.179
  H      207.106     -64.349     354.009
  H      210.987     -69.468     354.711
  H      211.117     -68.063     352.652
  H      210.264     -69.189     349.488
  H      208.104     -67.540     350.927
  H      208.146     -66.130     348.905
  H      210.939     -66.086     348.886
  H      209.056     -72.647     354.656
  H      210.848     -65.034     351.251
  H      210.040     -71.621     355.658
  H      209.899     -64.240     349.975
  P      208.370     -67.261     346.444
  C      209.967     -66.525     344.556
  O      209.254     -67.605     345.152
  O      207.684     -65.935     346.377
  O      207.289     -68.445     346.479
  H      206.468     -68.138     346.050
  H      210.514     -66.883     343.709
  H      210.647     -66.109     345.270
  H      209.275     -65.771     344.242

 6  7  8  9  10  11  12  13  14  15  16  26  30  31  32  33  35 0
 6-311+G(2d,p)
 ****
 37  38 0
 6-311+G(2d,p)
 ****
 1  2  3  4  5  17  18  19  20  21  22  23  24  25 0
 3-21G
 ****
 27  28  29  34  36  39  40  41  42  43  44  45  46 0
 3-21G
 ****


