%nproc=1
%NoSave
%Mem=1900MB
#P OB98/GEN NMR

erre ene a

0 1
  C     -207.765      37.313     564.594
  O     -207.926      37.098     563.194
  P     -209.228      37.693     562.475
  C     -209.018      35.977     560.472
  O     -209.221      37.296     560.928
  C     -209.587      35.843     559.047
  O     -210.950      36.316     559.003
  C     -208.804      36.642     558.007
  O     -207.703      35.915     557.492
  C     -209.871      36.938     556.972
  O     -210.107      35.779     556.151
  C     -211.095      37.218     557.873
  N     -211.279      38.595     558.386
  C     -211.909      39.551     557.597
  O     -212.339      39.342     556.464
  N     -212.054      40.794     558.155
  C     -211.798      41.129     559.455
  O     -212.002      42.245     559.918
  C     -211.274      40.044     560.288
  C     -211.030      38.859     559.727
  O     -208.972      39.270     562.465
  O     -210.520      37.338     563.144
  H     -210.849      35.993     555.555
  H     -209.636      39.724     563.017
  H     -212.444      41.518     557.574
  H     -211.101      40.252     561.336
  H     -210.642      38.047     560.342
  H     -212.027      36.950     557.356
  H     -209.556      37.730     556.293
  H     -208.477      37.597     558.430
  H     -209.587      34.780     558.773
  H     -209.502      35.255     561.131
  H     -207.949      35.749     560.471
  P     -206.213      36.331     557.906
  C     -205.117      36.250     555.583
  O     -205.255      35.606     556.835
  O     -205.848      36.131     559.337
  O     -206.117      37.872     557.465
  H     -206.301      38.462     558.232
  H     -204.330      35.749     555.017
  H     -204.850      37.300     555.720
  H     -206.055      36.174     555.027
  H     -206.854      36.858     564.922
  H     -208.590      36.878     565.119
  H     -207.730      38.364     564.792

 3  4  5  6  7  8  9  10  11  12  13  23  28  29  30  31  32 0
 6-311+G(2d,p)
 ****
 33  34 0
 6-311+G(2d,p)
 ****
 1  2  14  15  16  17  18  19  20  21  22  24  25  26  27 0
 3-21G
 ****
 35  36  37  38  39  40  41  42  43  44  45 0
 3-21G
 ****


