%nproc=1
%NoSave
%Mem=1900MB
#P OB98/GEN NMR

erre ene a

0 1
  C     -897.489     327.046    1327.912
  O     -897.849     328.347    1327.490
  H     -897.139     326.489    1327.058
  H     -898.369     326.544    1328.343
  H     -896.679     327.118    1328.668
  P     -898.509     329.325    1328.572
  C     -896.409     330.719    1329.270
  O     -897.659     330.687    1328.567
  C     -895.509     331.809    1328.675
  O     -895.059     331.417    1327.332
  C     -896.189     333.146    1328.482
  O     -896.329     333.873    1329.685
  C     -895.289     333.815    1327.477
  O     -894.169     334.457    1328.106
  C     -894.809     332.622    1326.589
  N     -895.489     332.604    1325.294
  C     -895.369     333.787    1324.549
  O     -894.729     334.766    1324.923
  N     -896.029     333.779    1323.359
  C     -896.849     332.788    1322.853
  O     -897.469     332.893    1321.818
  C     -896.959     331.598    1323.726
  C     -896.269     331.547    1324.879
  O     -898.089     328.632    1329.982
  O     -899.979     329.516    1328.461
  H     -898.869     328.213    1330.371
  H     -893.679     334.902    1327.397
  H     -895.969     334.624    1322.785
  H     -897.589     330.774    1323.356
  H     -896.359     330.702    1325.529
  H     -893.729     332.692    1326.430
  H     -895.819     334.587    1326.922
  H     -897.199     332.992    1328.018
  H     -894.619     331.907    1329.307
  H     -895.899     329.719    1329.134
  H     -896.579     330.880    1330.325
  P     -897.229     335.194    1329.673
  C     -899.329     333.887    1330.654
  O     -898.389     334.944    1330.792
  O     -898.009     335.049    1328.276
  O     -896.449     336.458    1329.844
  H     -898.089     334.102    1328.013
  H     -900.000     333.895    1331.488
  H     -898.812     332.951    1330.622
  H     -899.884     334.019    1329.749

 6  7  8  9  10  11  12  13  14  15  16  27  31  32  33  34  35 0
 6-311+G(2d,p)
 ****
 36  37 0
 6-311+G(2d,p)
 ****
 1  2  3  4  5  17  18  19  20  21  22  23  24  25 0
 3-21G
 ****
 26  28  29  30  38  39  40  41  42  43  44  45 0
 3-21G
 ****


