%nproc=1
%NoSave
%Mem=1900MB
#P OB98/GEN NMR

erre ene a

0 1
  C     -423.889     159.674     402.250
  O     -423.528     161.038     402.014
  P     -424.303     162.197     402.799
  C     -422.169     163.505     403.427
  O     -423.421     163.540     402.761
  C     -421.415     164.832     403.267
  O     -420.776     164.883     401.957
  C     -422.331     166.065     403.380
  O     -421.846     167.040     404.303
  C     -422.490     166.534     401.947
  O     -422.837     167.903     401.845
  C     -421.163     166.107     401.303
  N     -421.277     165.952     399.845
  C     -420.983     167.062     399.073
  O     -420.708     168.164     399.544
  N     -421.072     166.892     397.719
  C     -421.496     165.759     397.081
  O     -421.611     165.673     395.866
  C     -421.866     164.630     397.959
  C     -421.734     164.779     399.280
  O     -424.829     161.833     404.149
  O     -425.517     162.559     401.805
  H     -423.508     168.106     402.539
  H     -426.307     162.738     402.347
  H     -420.842     167.685     397.136
  H     -422.229     163.728     397.487
  H     -422.006     163.970     399.947
  H     -420.384     166.850     401.479
  H     -423.303     165.963     401.481
  H     -423.316     165.787     403.782
  H     -420.633     164.865     404.028
  H     -421.555     162.702     403.013
  H     -422.323     163.259     404.480
  P     -422.769     167.979     405.206
  C     -421.456     167.494     407.392
  O     -421.923     168.468     406.468
  O     -424.128     167.431     405.538
  O     -422.912     169.302     404.329
  H     -423.826     169.638     404.384
  H     -421.238     167.979     408.344
  H     -420.537     167.039     407.006
  H     -422.211     166.705     407.558
  H     -423.277     159.034     401.649
  H     -424.918     159.528     401.994
  H     -423.742     159.440     403.284

 3  4  5  6  7  8  9  10  11  12  13  23  28  29  30  31  32 0
 6-311+G(2d,p)
 ****
 33  34 0
 6-311+G(2d,p)
 ****
 1  2  14  15  16  17  18  19  20  21  22  24  25  26  27 0
 3-21G
 ****
 35  36  37  38  39  40  41  42  43  44  45 0
 3-21G
 ****


