%nproc=1
%NoSave
%Mem=1900MB
#P OB98/GEN NMR

erre ene a

0 1
  C      -81.673     -73.712     -91.641
  O      -80.761     -74.335     -92.527
  P      -79.604     -73.443     -93.188
  C      -77.753     -74.922     -92.053
  O      -78.301     -73.635     -92.272
  C      -76.259     -74.928     -92.392
  O      -75.684     -76.193     -91.963
  C      -75.946     -74.765     -93.884
  O      -74.735     -74.005     -93.984
  C      -75.717     -76.195     -94.339
  O      -74.950     -76.275     -95.530
  C      -75.027     -76.780     -93.103
  N      -75.091     -78.240     -93.036
  C      -74.436     -78.966     -94.026
  O      -73.827     -78.453     -94.962
  N      -74.529     -80.330     -93.922
  C      -75.248     -81.020     -92.990
  O      -75.311     -82.242     -92.956
  C      -75.959     -80.199     -92.000
  C      -75.841     -78.872     -92.062
  O      -80.112     -71.969     -92.839
  O      -79.394     -73.711     -94.639
  H      -80.549     -71.913     -91.972
  H      -74.132     -75.762     -95.397
  H      -74.030     -80.877     -94.608
  H      -76.553     -80.709     -91.253
  H      -76.356     -78.246     -91.343
  H      -73.979     -76.457     -93.070
  H      -76.684     -76.677     -94.524
  H      -76.748     -74.258     -94.428
  H      -75.771     -74.136     -91.810
  H      -78.265     -75.648     -92.688
  H      -77.917     -75.211     -91.009
  P      -74.443     -73.217     -95.356
  C      -76.429     -71.660     -94.663
  O      -75.739     -72.338     -95.688
  O      -74.555     -74.427     -96.405
  O      -73.124     -72.521     -95.414
  H      -75.350     -74.967     -96.275
  H      -77.044     -70.876     -95.112
  H      -75.738     -71.197     -93.953
  H      -77.082     -72.360     -94.134
  H      -82.378     -74.435     -91.288
  H      -82.192     -72.930     -92.155
  H      -81.139     -73.300     -90.811

 3  4  5  6  7  8  9  10  11  12  13  24  28  29  30  31  32 0
 6-311+G(2d,p)
 ****
 33  34 0
 6-311+G(2d,p)
 ****
 1  2  14  15  16  17  18  19  20  21  22  23  25  26  27 0
 3-21G
 ****
 35  36  37  38  39  40  41  42  43  44  45 0
 3-21G
 ****


