%nproc=1
%NoSave
%Mem=1900MB
#P OB98/GEN NMR

erre ene a

0 1
  C     -358.757     564.398    -214.121
  O     -358.013     565.573    -214.398
  P     -358.351     566.560    -215.607
  C     -358.832     568.656    -214.142
  O     -358.014     568.065    -215.142
  C     -358.128     569.802    -213.389
  O     -357.072     569.261    -212.557
  C     -357.443     570.743    -214.398
  O     -358.189     571.769    -215.031
  C     -356.162     571.212    -213.689
  O     -356.324     572.507    -213.084
  C     -355.946     570.145    -212.616
  N     -350.953     570.172    -213.583
  C     -351.764     571.211    -213.141
  N     -351.195     572.443    -213.144
  N     -353.008     571.044    -212.758
  C     -353.444     569.773    -212.903
  C     -352.746     568.661    -213.314
  C     -351.360     568.849    -213.692
  O     -350.632     567.977    -214.163
  N     -353.543     567.544    -213.413
  C     -354.751     567.986    -213.097
  N     -354.746     569.337    -212.817
  O     -359.641     566.309    -216.342
  O     -357.149     566.240    -216.633
  H     -357.064     572.445    -212.448
  H     -357.500     566.324    -217.541
  H     -350.015     570.368    -213.942
  H     -355.641     567.386    -213.089
  H     -355.857     570.607    -211.619
  H     -355.339     571.300    -214.407
  H     -350.304     572.619    -213.563
  H     -357.087     570.116    -215.229
  H     -351.810     573.236    -212.986
  H     -358.814     570.313    -212.709
  H     -359.126     567.865    -213.448
  H     -359.750     569.036    -214.597
  P     -358.747     571.739    -216.529
  C     -360.252     573.780    -216.866
  O     -358.945     573.252    -217.025
  O     -360.242     571.201    -216.377
  O     -357.976     570.862    -217.480
  H     -360.551     570.820    -217.246
  H     -360.362     574.670    -217.486
  H     -360.397     574.064    -215.814
  H     -361.003     573.051    -217.153
  H     -358.341     563.906    -213.267
  H     -358.716     563.743    -214.966
  H     -359.775     564.659    -213.921

 3  4  5  6  7  8  9  10  11  12  23  26  30  31 0
 6-311+G(2d,p)
 ****
 33  35  36  37  38 0
 6-311+G(2d,p)
 ****
 1  2  13  14  15  16  17  18  19  20  21  22  24  25 0
 3-21G
 ****
 27  28  29  32  34  39  40  41  42  43  44  45  46  47  48  49 0
 3-21G
 ****


