%nproc=1
%NoSave
%Mem=1900MB
#P OB98/GEN NMR

erre ene a

0 1
  C     -633.820     -51.015     188.455
  O     -635.054     -51.707     188.415
  P     -635.177     -53.130     187.696
  C     -635.963     -52.251     185.348
  O     -634.992     -52.914     186.121
  C     -635.376     -51.950     183.960
  O     -634.180     -51.166     184.087
  C     -635.024     -53.234     183.215
  O     -636.089     -53.631     182.360
  C     -633.759     -52.851     182.466
  O     -634.087     -52.137     181.256
  C     -633.077     -51.902     183.482
  N     -632.275     -52.497     184.562
  C     -631.456     -51.681     185.345
  O     -631.378     -50.461     185.208
  N     -630.692     -52.334     186.281
  C     -630.714     -53.674     186.541
  O     -629.865     -54.263     187.203
  C     -631.789     -54.426     185.880
  C     -632.488     -53.823     184.921
  O     -636.731     -53.479     187.834
  O     -634.303     -54.205     188.251
  H     -634.610     -52.744     180.702
  H     -636.877     -54.087     188.584
  H     -629.999     -51.763     186.755
  H     -631.927     -55.461     186.153
  H     -633.259     -54.375     184.390
  H     -632.438     -51.171     182.966
  H     -633.198     -53.728     182.155
  H     -634.775     -54.037     183.927
  H     -636.108     -51.368     183.381
  H     -636.271     -51.321     185.837
  H     -636.855     -52.875     185.253
  P     -636.238     -55.165     181.946
  C     -635.386     -54.434     179.639
  O     -635.248     -55.364     180.694
  O     -637.641     -55.646     181.737
  O     -635.518     -55.947     183.149
  H     -636.185     -56.262     183.788
  H     -634.558     -54.570     178.947
  H     -635.377     -53.417     180.023
  H     -636.326     -54.627     179.104
  H     -633.947     -50.090     188.977
  H     -633.489     -50.819     187.457
  H     -633.092     -51.613     188.961

 3  4  5  6  7  8  9  10  11  12  13  23  28  29  30  31  32 0
 6-311+G(2d,p)
 ****
 33  34 0
 6-311+G(2d,p)
 ****
 1  2  14  15  16  17  18  19  20  21  22  24  25  26  27 0
 3-21G
 ****
 35  36  37  38  39  40  41  42  43  44  45 0
 3-21G
 ****


