%nproc=1
%NoSave
%Mem=1900MB
#P OB98/GEN NMR

erre ene a

0 1
  C     -391.780    -136.824    -463.527
  O     -391.005    -135.854    -464.202
  H     -391.464    -136.861    -462.481
  H     -391.619    -137.807    -463.976
  H     -392.843    -136.563    -463.566
  P     -391.451    -135.462    -465.693
  C     -392.357    -133.151    -464.916
  O     -392.638    -134.391    -465.548
  C     -393.626    -132.305    -464.836
  O     -394.603    -133.008    -464.017
  C     -393.411    -130.918    -464.210
  O     -394.269    -129.984    -464.880
  C     -393.905    -131.107    -462.784
  O     -394.298    -129.903    -462.148
  C     -395.058    -132.086    -463.003
  N     -395.436    -132.792    -461.782
  C     -396.436    -132.224    -460.996
  O     -397.080    -131.222    -461.297
  N     -396.688    -132.862    -459.805
  C     -396.040    -133.968    -459.335
  O     -396.297    -134.481    -458.250
  C     -394.992    -134.515    -460.202
  C     -394.742    -133.911    -461.367
  O     -392.199    -136.781    -466.201
  O     -390.344    -135.042    -466.604
  H     -391.566    -137.389    -466.629
  H     -394.533    -130.122    -461.224
  H     -397.406    -132.462    -459.224
  H     -394.451    -135.386    -459.855
  H     -393.959    -134.283    -462.021
  H     -395.933    -131.560    -463.408
  H     -393.109    -131.567    -462.179
  H     -392.380    -130.562    -464.248
  H     -394.054    -132.217    -465.842
  H     -391.601    -132.613    -465.496
  H     -391.959    -133.342    -463.911
  P     -393.593    -129.006    -465.958
  C     -394.971    -129.859    -468.015
  O     -393.711    -129.766    -467.367
  O     -392.047    -129.135    -465.564
  O     -394.146    -127.617    -465.915
  H     -391.806    -130.022    -465.259
  H     -394.860    -130.395    -468.935
  H     -395.341    -128.876    -468.217
  H     -395.661    -130.376    -467.381

 6  7  8  9  10  11  12  13  14  15  16  27  31  32  33  34  35 0
 6-311+G(2d,p)
 ****
 36  37 0
 6-311+G(2d,p)
 ****
 1  2  3  4  5  17  18  19  20  21  22  23  24  25 0
 3-21G
 ****
 26  28  29  30  38  39  40  41  42  43  44  45 0
 3-21G
 ****


