%nproc=1
%NoSave
%Mem=1900MB
#P OB98/GEN NMR

erre ene a

0 1
  C       93.496    -124.589     -74.545
  O       92.605    -123.499     -74.799
  P       91.203    -123.515     -74.008
  C       91.894    -121.482     -72.538
  O       91.454    -122.832     -72.578
  C       92.461    -121.139     -71.162
  O       93.564    -122.001     -70.827
  C       93.015    -119.726     -71.050
  O       91.983    -118.771     -70.857
  C       93.878    -119.846     -69.801
  O       93.060    -119.706     -68.626
  C       94.421    -121.279     -69.910
  N       99.332    -121.091     -68.669
  C       98.212    -120.986     -67.868
  N       98.432    -120.836     -66.544
  N       96.988    -121.025     -68.323
  C       96.919    -121.208     -69.663
  C       97.952    -121.325     -70.563
  C       99.305    -121.248     -70.049
  O      100.330    -121.302     -70.719
  N       97.490    -121.510     -71.839
  C       96.178    -121.535     -71.711
  N       95.782    -121.341     -70.410
  O       91.013    -125.064     -73.649
  O       90.057    -122.978     -74.796
  H       92.599    -120.560     -68.495
  H       90.065    -125.272     -73.557
  H      100.252    -121.047     -68.267
  H       95.477    -121.692     -72.520
  H       94.385    -121.804     -68.949
  H       94.649    -119.072     -69.743
  H       99.346    -120.871     -66.118
  H       93.646    -119.481     -71.914
  H       97.623    -120.794     -65.937
  H       91.665    -121.287     -70.420
  H       91.061    -120.813     -72.764
  H       92.645    -121.330     -73.321
  P       91.475    -117.970     -72.152
  C       89.176    -119.168     -72.052
  O       90.340    -118.889     -72.807
  O       92.709    -118.095     -73.163
  O       91.104    -116.549     -71.893
  H       92.732    -117.327     -73.764
  H       88.812    -118.273     -71.541
  H       89.392    -119.949     -71.319
  H       88.396    -119.526     -72.731
  H       94.386    -124.465     -75.126
  H       93.020    -125.509     -74.814
  H       93.748    -124.609     -73.505

 3  4  5  6  7  8  9  10  11  12  23  26  30  31  33  0
 6-311+G(2d,p)
 ****
 35  36  37  38 0
 6-311+G(2d,p)
 ****
 1  2  13  14  15  16  17  18  19  20  21  22  24  25  27  28  29 0
 3-21G
 ****
 32  34  39  40  41  42  43  44  45  46  47  48  49 0
 3-21G
 ****


