%nproc=1
%NoSave
%Mem=1900MB
#P OB98/GEN NMR

erre ene a

0 1
  C      -92.506     -31.688      19.282
  O      -93.229     -31.708      20.517
  P      -92.898     -32.895      21.547
  C      -93.765     -35.344      21.832
  O      -93.856     -34.116      21.133
  C      -95.066     -36.145      21.698
  O      -96.167     -35.399      22.299
  C      -95.460     -36.478      20.254
  O      -96.038     -37.790      20.272
  C      -96.520     -35.438      19.942
  O      -97.365     -35.844      18.875
  C      -97.210     -35.321      21.305
  N      -97.989     -34.093      21.441
  C      -99.215     -34.192      22.086
  O      -99.685     -35.264      22.464
  N      -99.907     -33.022      22.242
  C      -99.535     -31.802      21.754
  O     -100.194     -30.783      21.923
  C      -98.284     -31.780      20.981
  C      -97.583     -32.909      20.861
  O      -93.535     -32.328      22.897
  O      -91.442     -33.217      21.616
  H      -94.361     -31.834      22.759
  H      -98.049     -35.159      18.731
  H     -100.785     -33.067      22.737
  H      -97.986     -30.843      20.528
  H      -96.670     -32.932      20.280
  H      -97.880     -36.173      21.469
  H      -96.044     -34.490      19.667
  H      -94.610     -36.456      19.567
  H      -94.952     -37.073      22.275
  H      -93.576     -35.155      22.893
  H      -92.909     -35.913      21.453
  P      -95.593     -38.833      19.130
  C      -96.368     -39.299      16.673
  O      -96.599     -38.642      17.899
  O      -96.095     -40.205      19.793
  O      -94.134     -38.843      18.816
  H      -96.998     -40.151      20.143
  H      -97.272     -39.231      16.063
  H      -96.133     -40.355      16.828
  H      -95.547     -38.812      16.140
  H      -92.824     -30.851      18.696
  H      -92.695     -32.593      18.743
  H      -91.458     -31.605      19.483

 3  4  5  6  7  8  9  10  11  12  13  24  28  29  30  31  32 0
 6-311+G(2d,p)
 ****
 33  34 0
 6-311+G(2d,p)
 ****
 1  2  14  15  16  17  18  19  20  21  22  23  25  26  27 0
 3-21G
 ****
 35  36  37  38  39  40  41  42  43  44  45 0
 3-21G
 ****


