%nproc=1
%NoSave
%Mem=1900MB
#P OB98/GEN NMR

erre ene a

0 1
  C      -71.376    -623.156    -161.247
  O      -70.322    -623.877    -160.636
  H      -71.220    -623.159    -162.328
  H      -71.369    -622.123    -160.887
  H      -72.350    -623.611    -161.029
  P      -70.520    -624.409    -159.140
  C      -70.693    -623.322    -156.801
  O      -70.851    -623.141    -158.204
  C      -71.095    -622.072    -156.021
  O      -72.522    -621.891    -156.068
  C      -70.724    -622.175    -154.538
  O      -69.396    -621.812    -154.215
  C      -71.720    -621.199    -153.903
  O      -71.215    -619.853    -153.942
  C      -72.954    -621.337    -154.802
  N      -77.031    -621.624    -151.737
  C      -76.212    -620.546    -151.995
  N      -76.480    -619.413    -151.299
  N      -75.210    -620.584    -152.835
  C      -75.013    -621.797    -153.385
  C      -75.746    -622.948    -153.201
  C      -76.885    -622.884    -152.307
  O      -77.640    -623.815    -152.034
  N      -75.238    -624.004    -153.928
  C      -74.158    -623.506    -154.492
  N      -73.988    -622.174    -154.217
  O      -69.033    -624.794    -158.682
  O      -71.450    -625.576    -158.991
  H      -71.878    -619.267    -153.529
  H      -69.065    -625.486    -157.992
  H      -77.808    -621.532    -151.098
  H      -73.479    -624.065    -155.132
  H      -73.404    -620.365    -155.017
  H      -71.902    -621.439    -152.855
  H      -77.160    -619.374    -150.558
  H      -70.939    -623.181    -154.156
  H      -75.753    -618.704    -151.260
  H      -70.641    -621.187    -156.488
  H      -69.638    -623.545    -156.635
  H      -71.270    -624.192    -156.462
  P      -68.885    -621.913    -152.697
  C      -69.114    -620.428    -150.578
  O      -69.527    -620.686    -151.901
  O      -67.331    -621.527    -152.828
  O      -69.066    -623.255    -152.067
  H      -66.783    -622.327    -152.878
  H      -69.641    -619.577    -150.199
  H      -68.062    -620.231    -150.565
  H      -69.325    -621.280    -149.966

 6  7  8  9  10  11  12  13  14  15  26  29  33  34 0
 6-311+G(2d,p)
 ****
 36  38  39  40  41 0
 6-311+G(2d,p)
 ****
 1  2  3  4  5  16  17  18  19  20  21  22  23  24  25 0
 3-21G
 ****
 27  28  30  31  32  35  37  42  43  44  45  46  47 0
 3-21G
 ****
 48  49 0
 3-21G
 ****


