%nproc=1
%NoSave
%Mem=1900MB
#P OB98/GEN NMR

erre ene a

0 1
  C     -318.261    -231.648     125.831
  O     -319.142    -232.146     126.814
  H     -318.779    -231.644     124.869
  H     -317.386    -232.301     125.756
  H     -317.940    -230.629     126.060
  P     -318.818    -231.857     128.354
  C     -318.630    -234.354     128.979
  O     -319.311    -233.126     129.205
  C     -319.568    -235.557     129.093
  O     -320.159    -235.606     130.409
  C     -320.736    -235.478     128.109
  O     -320.461    -235.952     126.802
  C     -321.784    -236.348     128.799
  O     -321.594    -237.734     128.470
  C     -321.502    -236.104     130.283
  N     -326.017    -235.421     132.578
  C     -325.482    -236.575     132.039
  N     -326.273    -237.668     132.064
  N     -324.287    -236.636     131.511
  C     -323.651    -235.441     131.471
  C     -324.084    -234.230     131.957
  C     -325.387    -234.183     132.591
  O     -325.910    -233.186     133.078
  N     -323.157    -233.239     131.739
  C     -322.203    -233.834     131.054
  N     -322.441    -235.177     130.888
  O     -319.888    -230.732     128.759
  O     -317.420    -231.397     128.641
  H     -320.667    -237.969     128.661
  H     -319.545    -230.196     129.497
  H     -326.930    -235.436     132.997
  H     -321.308    -233.346     130.679
  H     -321.553    -237.035     130.860
  H     -322.796    -236.084     128.486
  H     -327.238    -237.641     132.354
  H     -321.121    -234.454     128.056
  H     -326.028    -238.450     131.451
  H     -318.991    -236.480     128.962
  H     -317.843    -234.422     129.733
  H     -318.141    -234.340     128.001
  P     -320.648    -234.982     125.542
  C     -322.189    -236.815     124.525
  O     -321.143    -235.893     124.320
  O     -319.141    -234.611     125.157
  O     -321.472    -233.768     125.800
  H     -318.893    -233.753     125.552
  H     -322.390    -237.335     123.612
  H     -323.068    -236.293     124.839
  H     -321.903    -237.517     125.280

 6  7  8  9  10  11  12  13  14  15  26  29  33  34 0
 6-311+G(2d,p)
 ****
 36  38  39  40  41 0
 6-311+G(2d,p)
 ****
 1  2  3  4  5  16  17  18  19  20  21  22  23  24  25 0
 3-21G
 ****
 27  28  30  31  32  35  37  42  43  44  45  46  47 0
 3-21G
 ****
 48  49 0
 3-21G
 ****


