%nproc=1
%NoSave
%Mem=1900MB
#P OB98/GEN NMR

erre ene a

0 1
  C      284.873     -49.203      23.255
  O      283.519     -49.364      22.884
  H      285.344     -50.189      23.286
  H      284.952     -48.748      24.246
  H      285.399     -48.591      22.519
  P      282.573     -48.067      22.879
  C      283.184     -47.642      20.397
  O      283.188     -47.133      21.722
  C      282.907     -46.517      19.402
  O      282.998     -46.995      18.043
  C      281.516     -45.899      19.503
  O      281.355     -45.051      20.628
  C      281.469     -45.138      18.188
  O      282.263     -43.943      18.296
  C      282.131     -46.156      17.227
  N      281.157     -46.977      16.507
  C      280.415     -46.335      15.508
  O      280.591     -45.141      15.266
  N      279.461     -47.055      14.828
  C      279.252     -48.296      15.132
  N      278.263     -48.950      14.462
  C      280.022     -49.015      16.164
  C      280.944     -48.304      16.811
  O      282.364     -47.395      24.198
  O      281.213     -48.568      22.199
  H      282.146     -43.446      17.467
  H      280.589     -47.803      22.183
  H      279.804     -50.050      16.385
  H      281.541     -48.758      17.593
  H      282.770     -45.646      16.499
  H      280.460     -44.833      17.901
  H      280.742     -46.675      19.484
  H      283.694     -45.762      19.529
  H      277.728     -48.413      13.791
  H      282.417     -48.421      20.334
  H      277.858     -49.806      14.822
  H      284.156     -48.081      20.159
  P      279.860     -44.736      21.124
  C      279.896     -46.340      23.175
  O      279.349     -46.043      21.903
  O      279.023     -44.755      19.762
  O      279.687     -43.462      21.888
  H      278.935     -43.854      19.391
  H      279.451     -47.236      23.554
  H      279.696     -45.531      23.847
  H      280.953     -46.477      23.085

 6  7  8  9  10  11  12  13  14  15  16  26  30  31  32  33  35 0
 6-311+G(2d,p)
 ****
 37  38 0
 6-311+G(2d,p)
 ****
 1  2  3  4  5  17  18  19  20  21  22  23  24  25 0
 3-21G
 ****
 27  28  29  34  36  39  40  41  42  43  44  45  46 0
 3-21G
 ****


