%nproc=1
%NoSave
%Mem=1900MB
#P OB98/GEN NMR

erre ene a

0 1
  C      -74.773     -92.345     227.212
  O      -74.891     -90.942     226.967
  P      -73.576     -90.024     226.998
  C      -74.611     -88.167     228.477
  O      -74.003     -88.494     227.230
  C      -75.715     -87.125     228.264
  O      -76.891     -87.715     227.661
  C      -76.215     -86.519     229.574
  O      -75.323     -85.665     230.260
  C      -77.560     -85.939     229.164
  O      -77.418     -84.654     228.558
  C      -78.040     -86.974     228.123
  N      -79.072     -87.874     228.655
  C      -80.285     -87.282     228.995
  O      -80.493     -86.074     228.904
  N      -81.246     -88.126     229.481
  C      -81.102     -89.471     229.686
  O      -81.994     -90.178     230.146
  C      -79.792     -90.037     229.329
  C      -78.851     -89.224     228.839
  O      -72.601     -90.249     225.893
  O      -72.914     -90.409     228.413
  H      -77.352     -83.999     229.283
  H      -71.948     -90.468     228.283
  H      -82.135     -87.720     229.723
  H      -79.640     -91.097     229.485
  H      -77.878     -89.623     228.570
  H      -78.465     -86.473     227.244
  H      -78.225     -85.816     230.025
  H      -76.427     -87.344     230.264
  H      -75.343     -86.358     227.582
  H      -73.855     -87.783     229.167
  H      -75.008     -89.080     228.932
  P      -75.571     -85.164     231.762
  C      -75.503     -82.638     231.174
  O      -74.938     -83.698     231.919
  O      -75.309     -86.141     232.861
  O      -77.145     -84.839     231.735
  H      -77.518     -85.034     232.620
  H      -74.940     -81.721     231.391
  H      -76.545     -82.483     231.462
  H      -75.434     -82.843     230.101
  H      -75.740     -92.800     227.153
  H      -74.363     -92.503     228.187
  H      -74.128     -92.782     226.479

 3  4  5  6  7  8  9  10  11  12  13  23  28  29  30  31  32 0
 6-311+G(2d,p)
 ****
 33  34 0
 6-311+G(2d,p)
 ****
 1  2  14  15  16  17  18  19  20  21  22  24  25  26  27 0
 3-21G
 ****
 35  36  37  38  39  40  41  42  43  44  45 0
 3-21G
 ****


