%nproc=1
%NoSave
%Mem=1900MB
#P OB98/GEN NMR

erre ene a

0 1
  C       82.968    -153.900    -136.789
  O       84.029    -153.267    -137.475
  H       83.364    -154.376    -135.888
  H       82.516    -154.666    -137.423
  H       82.211    -153.166    -136.497
  P       83.648    -152.406    -138.772
  C       85.825    -152.861    -140.127
  O       85.038    -151.919    -139.413
  C       86.792    -152.128    -141.057
  O       86.032    -151.538    -142.146
  C       87.558    -150.994    -140.364
  O       88.886    -150.938    -140.894
  C       86.787    -149.752    -140.777
  O       87.553    -148.557    -140.718
  C       86.358    -150.133    -142.197
  N       85.215    -149.353    -142.667
  C       85.398    -147.984    -142.832
  O       86.470    -147.397    -142.682
  N       84.277    -147.276    -143.184
  C       83.025    -147.785    -143.359
  O       82.056    -147.095    -143.653
  C       82.892    -149.235    -143.164
  C       83.975    -149.941    -142.830
  O       83.041    -151.059    -138.155
  O       82.721    -153.064    -139.736
  H       82.076    -151.144    -138.035
  H       87.014    -147.834    -141.100
  H       84.394    -146.282    -143.310
  H       81.911    -149.674    -143.285
  H       83.909    -151.010    -142.664
  H       87.197    -150.017    -142.894
  H       85.911    -149.623    -140.130
  H       87.597    -151.108    -139.280
  H       87.480    -152.857    -141.501
  H       85.167    -153.500    -140.723
  H       86.379    -153.482    -139.415
  P       89.983    -151.911    -140.239
  C       91.953    -150.268    -139.737
  O       91.410    -151.263    -140.587
  O       89.882    -153.188    -141.193
  O       89.735    -152.177    -138.792
  H       89.724    -152.964    -142.126
  H       92.901    -149.952    -140.118
  H       92.080    -150.670    -138.753
  H       91.288    -149.431    -139.697

 6  7  8  9  10  11  12  13  14  15  16  27  31  32  33  34  35 0
 6-311+G(2d,p)
 ****
 36  37 0
 6-311+G(2d,p)
 ****
 1  2  3  4  5  17  18  19  20  21  22  23  24  25 0
 3-21G
 ****
 26  28  29  30  38  39  40  41  42  43  44  45 0
 3-21G
 ****


