%nproc=1
%NoSave
%Mem=1900MB
#P OB98/GEN NMR

erre ene a

0 1
  C     -728.943     -12.639     211.847
  O     -728.269     -13.607     212.627
  P     -727.718     -14.957     211.967
  C     -729.645     -16.469     212.918
  O     -728.946     -15.971     211.804
  C     -730.744     -17.427     212.429
  O     -731.514     -16.807     211.387
  C     -730.151     -18.721     211.877
  O     -730.121     -19.728     212.881
  C     -731.081     -19.047     210.720
  O     -732.276     -19.699     211.203
  C     -731.417     -17.631     210.189
  N     -730.466     -16.992     209.267
  C     -730.301     -17.504     207.979
  O     -730.930     -18.464     207.541
  N     -729.344     -16.886     207.215
  C     -728.603     -15.797     207.583
  O     -727.599     -15.414     206.988
  C     -729.019     -15.144     208.829
  C     -729.894     -15.772     209.611
  O     -726.856     -15.616     213.142
  O     -726.927     -14.780     210.713
  H     -731.991     -20.514     211.653
  H     -725.909     -15.424     213.016
  H     -729.125     -17.340     206.334
  H     -728.549     -14.209     209.095
  H     -730.185     -15.325     210.560
  H     -732.403     -17.622     209.702
  H     -730.617     -19.741     210.022
  H     -729.144     -18.540     211.474
  H     -731.421     -17.649     213.268
  H     -730.089     -15.648     213.490
  H     -728.959     -16.993     213.588
  P     -728.921     -20.783     212.901
  C     -730.416     -22.832     212.530
  O     -729.413     -22.004     211.980
  O     -728.418     -21.164     214.257
  O     -727.779     -20.062     212.030
  H     -727.138     -19.622     212.620
  H     -730.776     -23.503     211.752
  H     -731.240     -22.236     212.909
  H     -729.984     -23.435     213.339
  H     -729.230     -11.817     212.469
  H     -729.816     -13.078     211.411
  H     -728.293     -12.290     211.072

 3  4  5  6  7  8  9  10  11  12  13  23  28  29  30  31  32 0
 6-311+G(2d,p)
 ****
 33  34 0
 6-311+G(2d,p)
 ****
 1  2  14  15  16  17  18  19  20  21  22  24  25  26  27 0
 3-21G
 ****
 35  36  37  38  39  40  41  42  43  44  45 0
 3-21G
 ****


