%nproc=1
%NoSave
%Mem=1900MB
#P OB98/GEN NMR

erre ene a

0 1
  C     -453.799     463.333    -186.838
  O     -452.818     463.825    -185.945
  H     -454.133     462.355    -186.484
  H     -453.369     463.226    -187.838
  H     -454.662     463.997    -186.876
  P     -452.398     465.366    -186.032
  C     -450.579     465.045    -187.839
  O     -451.841     465.620    -187.512
  C     -450.113     465.509    -189.228
  O     -449.974     466.957    -189.215
  C     -448.741     464.927    -189.580
  O     -448.567     464.785    -190.988
  C     -447.779     465.986    -189.063
  O     -446.510     465.951    -189.704
  C     -448.570     467.268    -189.341
  N     -446.262     471.781    -188.796
  C     -446.205     470.892    -189.853
  N     -445.439     471.261    -190.905
  N     -446.829     469.746    -189.867
  C     -447.500     469.482    -188.724
  C     -447.610     470.257    -187.598
  C     -446.943     471.547    -187.606
  O     -446.943     472.363    -186.687
  N     -448.366     469.645    -186.629
  C     -448.709     468.499    -187.164
  N     -448.231     468.357    -188.444
  O     -451.063     465.443    -185.140
  O     -453.433     466.345    -185.560
  H     -446.061     466.789    -189.530
  H     -450.918     466.356    -184.834
  H     -445.783     472.656    -188.846
  H     -449.318     467.733    -186.671
  H     -448.403     467.615    -190.368
  H     -447.612     465.810    -188.004
  H     -444.788     472.037    -190.846
  H     -448.559     463.968    -189.100
  H     -445.137     470.507    -191.537
  H     -450.876     465.271    -189.979
  H     -450.710     463.963    -187.819
  H     -449.843     465.294    -187.081
  P     -449.017     463.413    -191.683
  C     -446.520     462.586    -191.983
  O     -447.850     462.333    -191.576
  O     -449.061     463.774    -193.246
  O     -450.337     462.882    -191.196
  H     -449.977     463.712    -193.584
  H     -445.923     461.714    -191.814
  H     -446.124     463.404    -191.418
  H     -446.506     462.832    -193.024

 6  7  8  9  10  11  12  13  14  15  26  29  33  34 0
 6-311+G(2d,p)
 ****
 36  38  39  40  41 0
 6-311+G(2d,p)
 ****
 1  2  3  4  5  16  17  18  19  20  21  22  23  24  25 0
 3-21G
 ****
 27  28  30  31  32  35  37  42  43  44  45  46  47 0
 3-21G
 ****
 48  49 0
 3-21G
 ****


