%nproc=1
%NoSave
%Mem=1900MB
#P OB98/GEN NMR

erre ene a

0 1
  C        6.764      25.398      27.347
  O        6.392      26.173      26.226
  H        7.794      25.051      27.240
  H        6.692      26.018      28.244
  H        6.092      24.543      27.454
  P        6.467      25.455      24.794
  C        8.695      26.703      24.346
  O        7.402      26.370      23.859
  C        9.513      27.364      23.240
  O        9.728      26.391      22.187
  C        8.858      28.607      22.615
  O        9.721      29.740      22.747
  C        8.733      28.267      21.138
  O        9.037      29.365      20.280
  C        9.720      27.121      20.954
  N        8.698      27.037      15.964
  C        9.413      27.903      16.715
  N        9.737      27.813      18.020
  C        9.266      26.670      18.548
  C        8.543      25.681      17.903
  C        8.241      25.906      16.550
  N        7.466      25.051      15.799
  N        8.224      24.658      18.778
  C        8.710      25.045      19.940
  N        9.331      26.263      19.853
  O        5.000      25.683      24.192
  O        6.831      24.009      24.829
  H        9.049      29.015      19.369
  H        4.656      24.841      23.840
  H        9.765      28.793      16.200
  H        8.603      24.511      20.875
  H       10.739      27.479      20.766
  H        7.706      27.943      20.933
  H        7.879      28.834      23.050
  H       10.499      27.620      23.648
  H        9.209      25.792      24.672
  H        7.202      25.348      14.874
  H        7.032      24.264      16.259
  H        8.590      27.371      25.206
  P        9.674      30.522      24.152
  C        8.462      32.506      22.981
  O        9.526      32.086      23.825
  O       11.179      30.398      24.682
  O        8.689      29.964      25.123
  H       11.195      30.444      25.656
  H        8.500      33.569      22.861
  H        7.527      32.230      23.422
  H        8.558      32.036      22.025

 6  7  8  9  10  11  12  13  14  15  25  28  32  33  34  35 0
 6-311+G(2d,p)
 ****
 36  39  40 0
 6-311+G(2d,p)
 ****
 1  2  3  4  5  16  17  18  19  20  21  22  23  24 0
 3-21G
 ****
 26  27  29  30  31  37  38  41  42  43  44  45  46  47  48 0
 3-21G
 ****


