%nproc=1
%NoSave
%Mem=1900MB
#P OB98/GEN NMR

erre ene a

0 1
  C      278.589      20.757     330.692
  O      277.197      20.998     330.707
  H      279.107      21.713     330.589
  H      278.857      20.123     329.843
  H      278.909      20.285     331.626
  P      276.203      19.744     330.846
  C      275.300      20.136     328.445
  O      275.975      19.255     329.332
  C      274.941      19.417     327.151
  O      276.124      18.994     326.437
  C      274.128      18.141     327.335
  O      272.774      18.363     327.689
  C      274.268      17.538     325.949
  O      273.412      18.238     325.026
  C      275.761      17.822     325.654
  N      276.630      16.692     325.991
  C      276.796      15.713     325.005
  O      276.227      15.813     323.917
  N      277.586      14.621     325.283
  C      278.137      14.503     326.453
  N      278.898      13.399     326.676
  C      277.969      15.501     327.527
  C      277.214      16.553     327.235
  O      274.956      19.980     331.639
  O      277.121      18.568     331.431
  H      273.590      17.872     324.140
  H      276.551      17.772     331.547
  H      278.425      15.338     328.495
  H      277.039      17.329     327.976
  H      275.910      18.080     324.596
  H      273.998      16.480     325.905
  H      274.613      17.465     328.056
  H      274.416      20.139     326.508
  H      278.996      12.730     325.922
  H      275.961      20.992     328.251
  H      279.302      13.182     327.581
  H      274.378      20.500     328.911
  P      271.997      17.153     328.406
  C      270.348      17.108     326.375
  O      271.206      16.381     327.243
  O      270.848      17.899     329.236
  O      272.847      16.270     329.266
  H      271.112      17.998     330.169
  H      269.907      16.438     325.666
  H      270.914      17.854     325.857
  H      269.577      17.579     326.948

 6  7  8  9  10  11  12  13  14  15  16  26  30  31  32  33  35 0
 6-311+G(2d,p)
 ****
 37  38 0
 6-311+G(2d,p)
 ****
 1  2  3  4  5  17  18  19  20  21  22  23  24  25 0
 3-21G
 ****
 27  28  29  34  36  39  40  41  42  43  44  45  46 0
 3-21G
 ****


