%nproc=1
%NoSave
%Mem=1900MB
#P OB98/GEN NMR

erre ene a

0 1
  C      189.243     -23.831      46.567
  O      189.234     -22.645      47.331
  H      188.875     -24.650      47.189
  H      190.266     -24.059      46.253
  H      188.600     -23.741      45.688
  P      189.380     -21.241      46.578
  C      191.310     -19.650      45.945
  O      190.931     -20.836      46.625
  C      192.487     -18.961      46.646
  O      192.053     -18.446      47.928
  C      193.603     -19.970      46.928
  O      194.889     -19.356      46.952
  C      193.263     -20.469      48.323
  O      194.381     -21.032      49.002
  C      192.716     -19.195      48.963
  N      191.993     -19.227      54.005
  C      193.157     -19.026      53.291
  N      194.280     -18.830      54.016
  N      193.216     -19.034      51.985
  C      192.031     -19.317      51.393
  C      190.817     -19.559      51.994
  C      190.757     -19.508      53.438
  O      189.756     -19.697      54.125
  N      189.843     -19.828      51.065
  C      190.466     -19.757      49.907
  N      191.794     -19.435      50.053
  O      188.717     -20.193      47.594
  O      188.746     -21.163      45.222
  H      194.747     -21.735      48.433
  H      188.398     -19.410      47.113
  H      192.000     -19.195      55.009
  H      190.006     -19.922      48.940
  H      193.535     -18.577      49.354
  H      192.510     -21.257      48.231
  H      194.314     -18.990      55.011
  H      193.614     -20.784      46.202
  H      195.169     -18.974      53.530
  H      192.830     -18.104      46.057
  H      190.438     -18.987      45.941
  H      191.557     -19.872      44.904
  P      195.745     -19.373      45.598
  C      197.518     -20.988      44.536
  O      196.728     -20.637      45.657
  O      196.715     -18.112      45.752
  O      194.913     -19.295      44.362
  H      196.413     -17.383      45.179
  H      198.103     -21.853      44.769
  H      198.167     -20.174      44.288
  H      196.881     -21.202      43.704

 6  7  8  9  10  11  12  13  14  15  26  29  33  34 0
 6-311+G(2d,p)
 ****
 36  38  39  40  41 0
 6-311+G(2d,p)
 ****
 1  2  3  4  5  16  17  18  19  20  21  22  23  24  25 0
 3-21G
 ****
 27  28  30  31  32  35  37  42  43  44  45  46  47 0
 3-21G
 ****
 48  49 0
 3-21G
 ****


