%nproc=1
%NoSave
%Mem=1900MB
#P OB98/GEN NMR

erre ene a

0 1
  C      -23.410      -2.539    -169.054
  O      -21.999      -2.580    -168.959
  P      -21.226      -1.194    -168.728
  C      -18.940      -2.211    -169.463
  O      -19.929      -1.211    -169.669
  C      -18.570      -2.854    -170.801
  O      -19.645      -3.697    -171.268
  C      -18.329      -1.844    -171.915
  O      -17.043      -1.257    -171.813
  C      -18.504      -2.708    -173.156
  O      -17.295      -3.421    -173.464
  C      -19.614      -3.683    -172.711
  N      -20.915      -3.347    -173.279
  C      -21.281      -4.052    -174.422
  O      -20.553      -4.892    -174.951
  N      -22.494      -3.727    -174.964
  C      -23.336      -2.751    -174.517
  O      -24.388      -2.467    -175.078
  C      -22.884      -2.017    -173.322
  C      -21.712      -2.340    -172.771
  O      -20.628      -1.331    -167.250
  O      -22.077       0.022    -168.873
  H      -16.651      -2.754    -173.774
  H      -20.643      -0.462    -166.805
  H      -22.788      -4.242    -175.777
  H      -23.528      -1.235    -172.940
  H      -21.356      -1.803    -171.900
  H      -19.360      -4.706    -173.017
  H      -18.758      -2.115    -174.040
  H      -19.111      -1.076    -171.901
  H      -17.683      -3.481    -170.651
  H      -19.331      -2.972    -168.783
  H      -18.060      -1.753    -169.000
  P      -16.942       0.325    -172.071
  C      -14.474      -0.028    -172.856
  O      -15.755       0.499    -173.133
  O      -16.333       0.818    -170.676
  O      -18.253       0.940    -172.433
  H      -15.740       0.157    -170.281
  H      -14.540      -0.968    -172.303
  H      -13.904       0.698    -172.274
  H      -13.957      -0.209    -173.802
  H      -23.786      -3.529    -169.207
  H      -23.694      -1.919    -169.878
  H      -23.817      -2.138    -168.149

 3  4  5  6  7  8  9  10  11  12  13  23  28  29  30  31  32 0
 6-311+G(2d,p)
 ****
 33  34 0
 6-311+G(2d,p)
 ****
 1  2  14  15  16  17  18  19  20  21  22  24  25  26 0
 3-21G
 ****
 27  35  36  37  38  39  40  41  42  43  44  45 0
 3-21G
 ****


