%nproc=1
%NoSave
%Mem=1900MB
#P OB98/GEN NMR

erre ene a

0 1
  C     -639.951    -111.889     -58.860
  O     -640.781    -113.012     -59.083
  H     -640.205    -111.450     -57.889
  H     -640.107    -111.141     -59.639
  H     -638.898    -112.194     -58.846
  P     -640.571    -113.802     -60.467
  C     -643.124    -114.275     -60.476
  O     -641.820    -114.813     -60.599
  C     -644.165    -115.388     -60.496
  O     -644.500    -115.708     -61.883
  C     -643.696    -116.698     -59.831
  O     -644.801    -117.295     -59.138
  C     -643.330    -117.576     -61.014
  O     -643.371    -118.969     -60.697
  C     -644.378    -117.138     -62.035
  N     -643.345    -121.035     -65.047
  C     -643.733    -121.013     -63.721
  N     -643.866    -122.204     -63.098
  N     -643.969    -119.902     -63.054
  C     -643.828    -118.788     -63.816
  C     -643.439    -118.678     -65.135
  C     -643.152    -119.910     -65.848
  O     -642.786    -120.004     -67.014
  N     -643.375    -117.365     -65.528
  C     -643.731    -116.675     -64.454
  N     -644.017    -117.498     -63.389
  O     -639.332    -114.770     -60.151
  O     -640.328    -112.948     -61.669
  H     -643.158    -119.472     -61.507
  H     -638.816    -114.944     -60.966
  H     -643.159    -121.914     -65.501
  H     -643.785    -115.600     -64.383
  H     -645.366    -117.583     -61.841
  H     -642.315    -117.335     -61.363
  H     -643.731    -123.087     -63.544
  H     -642.862    -116.563     -59.138
  H     -644.159    -122.202     -62.121
  H     -645.094    -115.027     -60.029
  H     -643.312    -113.587     -61.308
  H     -643.198    -113.722     -59.532
  P     -644.637    -117.544     -57.558
  C     -645.956    -119.749     -57.110
  O     -645.939    -118.320     -57.020
  O     -644.798    -116.077     -56.941
  O     -643.318    -118.150     -57.174
  H     -643.941    -115.756     -56.624
  H     -646.879    -120.120     -56.716
  H     -645.140    -120.152     -56.546
  H     -645.861    -120.043     -58.134

 6  7  8  9  10  11  12  13  14  15  26  29  33  34 0
 6-311+G(2d,p)
 ****
 36  38  39  40  41 0
 6-311+G(2d,p)
 ****
 1  2  3  4  5  16  17  18  19  20  21  22  23  24  25 0
 3-21G
 ****
 27  28  30  31  32  35  37  42  43  44  45  46  47 0
 3-21G
 ****
 48  49 0
 3-21G
 ****


