%nproc=1
%NoSave
%Mem=1900MB
#P OB98/GEN NMR

erre ene a

0 1
  C      368.149    -253.620    -188.673
  O      369.190    -252.953    -189.369
  P      368.791    -252.059    -190.642
  C      368.800    -249.791    -189.401
  O      368.020    -250.771    -190.070
  C      368.983    -248.555    -190.268
  O      369.917    -248.864    -191.342
  C      367.688    -248.041    -190.919
  O      367.640    -246.612    -190.822
  C      367.865    -248.394    -192.388
  O      367.105    -247.542    -193.238
  C      369.383    -248.249    -192.528
  N      369.463    -248.081    -197.576
  C      368.985    -247.157    -196.670
  N      368.397    -246.054    -197.190
  N      369.072    -247.294    -195.375
  C      369.716    -248.429    -194.994
  C      370.239    -249.414    -195.797
  C      370.082    -249.274    -197.229
  O      370.403    -250.106    -198.081
  N      370.831    -250.400    -195.047
  C      370.659    -250.018    -193.798
  N      369.948    -248.848    -193.714
  O      367.629    -252.926    -191.325
  O      369.895    -251.785    -191.599
  H      367.417    -246.631    -193.083
  H      367.864    -253.112    -192.255
  H      369.352    -247.933    -198.561
  H      371.008    -250.561    -192.932
  H      369.664    -247.184    -192.521
  H      367.541    -249.426    -192.552
  H      368.322    -245.866    -198.179
  H      366.775    -248.473    -190.501
  H      368.056    -245.353    -196.542
  H      369.447    -247.765    -189.662
  H      369.784    -250.215    -189.166
  H      368.302    -249.524    -188.460
  P      366.171    -245.957    -190.760
  C      365.923    -245.538    -188.198
  O      365.588    -246.336    -189.320
  O      365.325    -246.861    -191.768
  O      366.142    -244.510    -191.120
  H      364.559    -246.364    -192.112
  H      366.444    -244.619    -188.492
  H      366.567    -246.113    -187.534
  H      365.005    -245.273    -187.669
  H      368.563    -254.172    -187.855
  H      367.648    -254.291    -189.339
  H      367.451    -252.900    -188.300

 3  4  5  6  7  8  9  10  11  12  23  26  30  31  33  0
 6-311+G(2d,p)
 ****
 35  36  37  38 0
 6-311+G(2d,p)
 ****
 1  2  13  14  15  16  17  18  19  20  21  22  24  25  27  28  29 0
 3-21G
 ****
 32  34  39  40  41  42  43  44  45  46  47  48  49 0
 3-21G
 ****


