%nproc=1
%NoSave
%Mem=1900MB
#P OB98/GEN NMR

erre ene a

0 1
  C      130.231      31.196     -56.391
  O      129.147      30.769     -55.584
  P      128.600      29.275     -55.794
  C      127.873      27.931     -57.937
  O      128.168      29.182     -57.335
  C      126.801      28.105     -59.017
  O      125.507      28.279     -58.400
  C      126.993      29.324     -59.910
  O      128.002      29.112     -60.883
  C      125.588      29.498     -60.476
  O      125.371      28.580     -61.561
  C      124.709      29.111     -59.269
  N      124.176      30.268     -58.551
  C      122.960      30.767     -59.008
  O      122.346      30.282     -59.958
  N      122.478      31.864     -58.343
  C      123.108      32.532     -57.333
  O      122.651      33.535     -56.802
  C      124.405      31.977     -56.916
  C      124.871      30.889     -57.534
  O      127.222      29.350     -54.987
  O      129.554      28.231     -55.325
  H      126.864      30.255     -54.964
  H      125.537      27.685     -61.204
  H      121.586      32.230     -58.640
  H      124.939      32.487     -56.126
  H      125.829      30.473     -57.246
  H      123.867      28.490     -59.598
  H      125.410      30.509     -60.861
  H      127.251      30.198     -59.299
  H      126.771      27.188     -59.619
  H      127.513      27.243     -57.169
  H      128.791      27.521     -58.372
  P      128.818      30.414     -61.368
  C      128.307      32.349     -63.047
  O      127.910      31.121     -62.481
  O      130.010      29.740     -62.198
  O      129.263      31.293     -60.247
  H      129.713      29.001     -62.756
  H      127.782      32.484     -63.998
  H      129.384      32.376     -63.231
  H      128.033      33.166     -62.375
  H      130.485      32.205     -56.142
  H      129.950      31.143     -57.422
  H      131.076      30.562     -56.218

 3  4  5  6  7  8  9  10  11  12  13  24  28  29  30  31  32 0
 6-311+G(2d,p)
 ****
 33  34 0
 6-311+G(2d,p)
 ****
 1  2  14  15  16  17  18  19  20  21  22  23  25  26  27 0
 3-21G
 ****
 35  36  37  38  39  40  41  42  43  44  45 0
 3-21G
 ****


