%nproc=1
%NoSave
%Mem=1900MB
#P OB98/GEN NMR

erre ene a

0 1
  C     -291.170     128.689    -290.320
  O     -290.382     129.106    -291.420
  P     -289.269     128.124    -292.038
  C     -286.916     128.677    -291.150
  O     -288.115     127.930    -290.941
  C     -286.935     129.955    -290.313
  O     -287.363     129.680    -288.958
  C     -285.575     130.621    -290.167
  O     -285.167     131.263    -291.365
  C     -285.828     131.560    -288.995
  O     -286.501     132.756    -289.429
  C     -286.773     130.701    -288.113
  N     -286.090     130.119    -286.970
  C     -286.277     130.780    -285.753
  O     -286.908     131.837    -285.696
  N     -285.723     130.227    -284.618
  C     -284.953     129.186    -284.719
  N     -284.483     128.649    -283.564
  C     -284.609     128.563    -286.013
  C     -285.224     129.057    -287.084
  O     -288.788     128.495    -293.402
  O     -289.985     126.692    -292.060
  H     -289.885     126.302    -292.943
  H     -286.598     133.321    -288.638
  H     -283.912     127.735    -286.050
  H     -285.050     128.646    -288.070
  H     -287.616     131.311    -287.760
  H     -284.908     131.865    -288.494
  H     -284.826     129.871    -289.883
  H     -287.656     130.650    -290.767
  H     -284.755     129.092    -282.693
  H     -286.846     128.929    -292.215
  H     -284.166     127.684    -283.497
  H     -286.055     128.056    -290.887
  P     -283.586     131.400    -291.606
  C     -282.610     133.809    -291.546
  O     -283.098     132.700    -290.806
  O     -283.488     131.850    -293.148
  O     -282.804     130.161    -291.357
  H     -282.700     131.442    -293.558
  H     -282.650     134.697    -290.910
  H     -283.215     133.984    -292.440
  H     -281.576     133.628    -291.837
  H     -291.849     129.471    -290.051
  H     -290.534     128.468    -289.489
  H     -291.722     127.813    -290.589

 3  4  5  6  7  8  9  10  11  12  13  24  27  28  29  30  32 0
 6-311+G(2d,p)
 ****
 34  35 0
 6-311+G(2d,p)
 ****
 1  2  14  15  16  17  18  19  20  21  22  23  25  26 0
 3-21G
 ****
 31  33  36  37  38  39  40  41  42  43  44  45  46 0
 3-21G
 ****


