%nproc=1
%NoSave
%Mem=1900MB
#P OB98/GEN NMR

erre ene a

0 1
  C      -57.850    -530.685     233.977
  O      -58.478    -531.231     235.147
  P      -59.480    -530.395     236.080
  C      -61.503    -531.925     235.534
  O      -60.974    -530.606     235.522
  C      -62.864    -531.977     234.836
  O      -62.735    -531.560     233.455
  C      -63.494    -533.361     234.744
  O      -64.008    -533.802     235.992
  C      -64.562    -533.137     233.670
  O      -65.755    -532.584     234.229
  C      -63.884    -532.096     232.753
  N      -63.498    -532.638     231.461
  C      -64.540    -533.025     230.616
  O      -65.708    -532.986     230.995
  N      -64.219    -533.482     229.351
  C      -62.977    -533.619     229.009
  N      -62.734    -534.062     227.750
  C      -61.857    -533.356     229.926
  C      -62.181    -532.865     231.117
  O      -59.110    -528.964     236.247
  O      -59.491    -531.162     237.487
  H      -59.720    -530.534     238.200
  H      -66.159    -533.271     234.790
  H      -60.836    -533.536     229.614
  H      -61.415    -532.628     231.853
  H      -64.548    -531.235     232.599
  H      -64.834    -534.067     233.162
  H      -62.742    -534.075     234.378
  H      -63.543    -531.283     235.348
  H      -63.521    -534.233     227.140
  H      -61.628    -532.238     236.578
  H      -61.801    -534.190     227.375
  H      -60.786    -532.608     235.060
  P      -63.015    -534.641     236.931
  C      -63.091    -532.950     238.903
  O      -62.299    -533.605     237.926
  O      -61.840    -535.086     235.939
  O      -63.642    -535.820     237.593
  H      -61.558    -535.999     236.150
  H      -62.446    -532.704     239.760
  H      -63.907    -533.580     239.255
  H      -63.495    -532.025     238.484
  H      -57.230    -531.430     233.524
  H      -57.251    -529.843     234.254
  H      -58.601    -530.375     233.281

 3  4  5  6  7  8  9  10  11  12  13  24  27  28  29  30  32 0
 6-311+G(2d,p)
 ****
 34  35 0
 6-311+G(2d,p)
 ****
 1  2  14  15  16  17  18  19  20  21  22  23  25  26 0
 3-21G
 ****
 31  33  36  37  38  39  40  41  42  43  44  45  46 0
 3-21G
 ****


