%nproc=1
%NoSave
%Mem=1900MB
#P OB98/GEN NMR

erre ene a

0 1
  C      -42.956     -26.342      -9.989
  O      -43.506     -25.853     -11.195
  H      -43.750     -26.571      -9.273
  H      -42.398     -27.257     -10.203
  H      -42.272     -25.602      -9.562
  P      -44.455     -24.565     -11.074
  C      -43.644     -23.174     -13.104
  O      -43.632     -23.334     -11.693
  C      -42.379     -22.459     -13.562
  O      -41.212     -23.222     -13.191
  C      -42.268     -22.263     -15.069
  O      -43.055     -21.171     -15.523
  C      -40.780     -21.976     -15.206
  O      -40.520     -20.599     -14.877
  C      -40.165     -22.896     -14.141
  N      -35.952     -25.245     -15.903
  C      -36.158     -23.992     -15.437
  N      -37.303     -23.434     -14.998
  C      -38.315     -24.315     -15.052
  C      -38.258     -25.624     -15.500
  C      -37.009     -26.087     -15.949
  N      -36.814     -27.361     -16.436
  N      -39.490     -26.230     -15.396
  C      -40.282     -25.306     -14.893
  N      -39.618     -24.128     -14.674
  O      -44.460     -24.251      -9.501
  O      -45.840     -24.740     -11.600
  H      -40.892     -20.063     -15.603
  H      -45.343     -23.922      -9.248
  H      -35.280     -23.351     -15.412
  H      -41.332     -25.445     -14.668
  H      -39.374     -22.387     -13.579
  H      -40.400     -22.148     -16.216
  H      -42.509     -23.186     -15.609
  H      -42.329     -21.494     -13.041
  H      -44.517     -22.581     -13.396
  H      -35.872     -27.694     -16.554
  H      -37.612     -27.988     -16.459
  H      -43.715     -24.162     -13.570
  P      -44.464     -21.513     -16.217
  C      -46.385     -20.839     -14.610
  O      -45.467     -21.850     -15.012
  O      -44.199     -22.944     -16.885
  O      -44.938     -20.513     -17.214
  H      -44.805     -23.074     -17.640
  H      -46.985     -21.203     -13.803
  H      -47.015     -20.581     -15.435
  H      -45.844     -19.973     -14.290

 6  7  8  9  10  11  12  13  14  15  25  28  32  33  34  35 0
 6-311+G(2d,p)
 ****
 36  39  40 0
 6-311+G(2d,p)
 ****
 1  2  3  4  5  16  17  18  19  20  21  22  23  24 0
 3-21G
 ****
 26  27  29  30  31  37  38  41  42  43  44  45  46  47  48 0
 3-21G
 ****


