%nproc=1
%NoSave
%Mem=1900MB
#P OB98/GEN NMR

erre ene a

0 1
  C      -37.923      82.878      24.000
  O      -37.874      82.794      22.591
  H      -37.556      83.861      24.308
  H      -37.273      82.112      24.432
  H      -38.945      82.750      24.366
  P      -38.718      81.621      21.896
  C      -41.067      81.425      20.811
  O      -40.139      82.253      21.494
  C      -42.257      82.249      20.319
  O      -42.970      82.775      21.480
  C      -41.870      83.442      19.429
  O      -42.868      83.603      18.412
  C      -41.972      84.619      20.382
  O      -42.176      85.852      19.702
  C      -43.151      84.183      21.245
  N      -45.343      88.143      23.412
  C      -45.622      87.503      22.221
  N      -46.597      88.033      21.452
  N      -44.993      86.433      21.813
  C      -44.053      85.997      22.686
  C      -43.679      86.541      23.889
  C      -44.372      87.737      24.324
  O      -44.155      88.361      25.356
  N      -42.641      85.836      24.446
  C      -42.377      84.882      23.569
  N      -43.206      84.940      22.484
  O      -39.068      80.663      23.131
  O      -38.014      80.887      20.805
  H      -42.926      85.739      19.083
  H      -38.408      79.947      23.191
  H      -45.846      88.974      23.672
  H      -41.591      84.146      23.663
  H      -44.116      84.326      20.742
  H      -41.055      84.699      20.979
  H      -47.148      88.836      21.714
  H      -40.883      83.350      18.967
  H      -46.840      87.550      20.595
  H      -42.952      81.584      19.792
  H      -41.430      80.650      21.494
  H      -40.565      80.941      19.966
  P      -42.645      82.854      17.013
  C      -43.532      80.624      16.006
  O      -43.118      81.329      17.167
  O      -41.051      82.736      16.917
  O      -43.211      83.583      15.840
  H      -40.770      82.814      15.986
  H      -43.814      79.628      16.275
  H      -42.726      80.589      15.304
  H      -44.368      81.124      15.564

 6  7  8  9  10  11  12  13  14  15  26  29  33  34 0
 6-311+G(2d,p)
 ****
 36  38  39  40  41 0
 6-311+G(2d,p)
 ****
 1  2  3  4  5  16  17  18  19  20  21  22  23  24  25 0
 3-21G
 ****
 27  28  30  31  32  35  37  42  43  44  45  46  47 0
 3-21G
 ****
 48  49 0
 3-21G
 ****


