%nproc=1
%NoSave
%Mem=1900MB
#P OB98/GEN NMR

erre ene a

0 1
  C     -883.058    -296.080     286.104
  O     -884.325    -295.832     285.471
  P     -885.390    -294.795     286.084
  C     -884.793    -292.485     285.125
  O     -885.639    -293.615     285.024
  C     -885.048    -291.476     283.981
  O     -884.484    -291.951     282.746
  C     -886.518    -291.212     283.707
  O     -887.040    -290.305     284.665
  C     -886.446    -290.670     282.261
  O     -886.085    -289.274     282.278
  C     -885.330    -291.517     281.662
  N     -887.423    -293.021     277.248
  C     -887.026    -291.819     277.676
  N     -886.486    -291.479     278.876
  C     -886.345    -292.593     279.649
  C     -886.723    -293.901     279.347
  C     -887.289    -294.092     278.075
  N     -887.717    -295.330     277.628
  N     -886.455    -294.724     280.384
  C     -885.906    -293.962     281.309
  N     -885.810    -292.660     280.901
  O     -885.057    -294.310     287.473
  O     -886.772    -295.602     286.098
  H     -886.801    -288.798     282.732
  H     -887.357    -295.258     286.806
  H     -887.162    -290.998     276.978
  H     -885.546    -294.300     282.285
  H     -884.694    -290.918     280.979
  H     -887.406    -290.739     281.752
  H     -887.080    -292.157     283.711
  H     -884.519    -290.538     284.234
  H     -883.743    -292.820     285.067
  H     -888.148    -295.392     276.724
  H     -887.647    -296.131     278.240
  H     -884.944    -291.995     286.083
  P     -888.575    -290.461     285.139
  C     -888.702    -290.028     287.658
  O     -888.779    -289.451     286.375
  O     -889.060    -291.850     285.359
  O     -889.410    -289.750     283.961
  H     -890.290    -290.139     283.894
  H     -889.636    -290.548     287.903
  H     -888.521    -289.229     288.385
  H     -887.868    -290.738     287.704
  H     -882.509    -296.799     285.533
  H     -883.221    -296.458     287.092
  H     -882.502    -295.168     286.158

 3  4  5  6  7  8  9  10  11  12  22  25  29  30  31  32 0
 6-311+G(2d,p)
 ****
 33  36  37 0
 6-311+G(2d,p)
 ****
 1  2  13  14  15  16  17  18  19  20  21  23  24  26 0
 3-21G
 ****
 27  28  34  35  38  39  40  41  42  43  44  45  46  47  48 0
 3-21G
 ****


