%nproc=1
%NoSave
%Mem=1900MB
#P OB98/GEN NMR

erre ene a

0 1
  C     -113.252    -287.617    -185.180
  O     -112.305    -287.849    -186.209
  P     -111.075    -286.853    -186.431
  C     -110.681    -287.650    -188.901
  O     -110.914    -286.591    -187.996
  C     -110.314    -287.059    -190.270
  O     -111.473    -286.453    -190.875
  C     -109.231    -285.990    -190.147
  O     -107.947    -286.550    -190.367
  C     -109.639    -284.981    -191.206
  O     -109.192    -285.408    -192.505
  C     -111.182    -285.050    -191.119
  N     -111.855    -284.256    -190.074
  C     -112.176    -282.925    -190.320
  O     -111.961    -282.355    -191.384
  N     -112.748    -282.246    -189.269
  C     -113.055    -282.778    -188.051
  O     -113.333    -282.116    -187.058
  C     -112.945    -284.234    -187.951
  C     -112.339    -284.893    -188.940
  O     -109.806    -287.760    -186.075
  O     -111.110    -285.599    -185.623
  H     -109.330    -284.660    -193.116
  H     -109.503    -287.586    -185.164
  H     -112.855    -281.245    -189.396
  H     -113.310    -284.718    -187.054
  H     -112.211    -285.971    -188.869
  H     -111.641    -284.776    -192.076
  H     -109.175    -284.014    -191.027
  H     -109.285    -285.506    -189.163
  H     -109.975    -287.871    -190.926
  H     -111.573    -288.276    -188.983
  H     -109.868    -288.285    -188.534
  P     -106.714    -286.083    -189.460
  C     -105.372    -286.622    -191.576
  O     -105.541    -285.729    -190.493
  O     -106.336    -287.015    -188.356
  O     -107.190    -284.660    -188.899
  H     -107.556    -284.763    -187.997
  H     -104.675    -286.179    -192.293
  H     -106.327    -286.808    -192.074
  H     -104.953    -287.565    -191.212
  H     -113.992    -288.390    -185.195
  H     -113.723    -286.669    -185.336
  H     -112.756    -287.617    -184.232

 3  4  5  6  7  8  9  10  11  12  13  23  28  29  30  31  32 0
 6-311+G(2d,p)
 ****
 33  34 0
 6-311+G(2d,p)
 ****
 1  2  14  15  16  17  18  19  20  21  22  24  25  26  27 0
 3-21G
 ****
 35  36  37  38  39  40  41  42  43  44  45 0
 3-21G
 ****


