%nproc=1
%NoSave
%Mem=1900MB
#P OB98/GEN NMR

erre ene a

0 1
  C      517.944     144.471    -781.300
  O      518.268     144.467    -782.698
  P      519.804     144.810    -783.057
  C      519.345     147.143    -784.138
  O      519.965     146.412    -783.076
  C      518.817     148.489    -783.648
  O      518.379     149.275    -784.809
  C      517.608     148.410    -782.698
  O      517.727     149.456    -781.715
  C      516.423     148.743    -783.581
  O      515.312     149.233    -782.819
  C      517.073     149.783    -784.513
  N      513.144     152.174    -786.650
  C      513.676     152.300    -785.378
  N      513.067     153.180    -784.547
  N      514.727     151.635    -784.949
  C      515.245     150.810    -785.896
  C      514.823     150.588    -787.197
  C      513.625     151.317    -787.625
  O      513.078     151.190    -788.715
  N      515.611     149.686    -787.846
  C      516.525     149.339    -786.944
  N      516.336     149.992    -785.747
  O      519.912     144.395    -784.613
  O      520.801     144.076    -782.237
  H      515.600     150.092    -782.432
  H      520.625     143.739    -784.734
  H      512.323     152.699    -786.914
  H      517.298     148.622    -787.100
  H      517.173     150.757    -784.021
  H      516.110     147.848    -784.126
  H      512.296     153.789    -784.839
  H      517.505     147.452    -782.194
  H      513.461     153.335    -783.646
  H      519.641     149.046    -783.187
  H      518.529     146.553    -784.552
  H      520.095     147.284    -784.930
  P      518.056     149.001    -780.196
  C      515.558     148.808    -779.495
  O      516.766     148.126    -779.740
  O      517.912     150.356    -779.367
  O      519.389     148.341    -780.025
  H      518.467     150.313    -778.561
  H      515.548     149.839    -779.854
  H      515.337     148.800    -778.418
  H      514.751     148.262    -780.012
  H      516.909     144.233    -781.173
  H      518.140     145.440    -780.891
  H      518.542     143.743    -780.793

 3  4  5  6  7  8  9  10  11  12  23  26  30  31  33  0
 6-311+G(2d,p)
 ****
 35  36  37  38 0
 6-311+G(2d,p)
 ****
 1  2  13  14  15  16  17  18  19  20  21  22  24  25  27  28  29 0
 3-21G
 ****
 32  34  39  40  41  42  43  44  45  46  47  48  49 0
 3-21G
 ****


