%nproc=1
%NoSave
%Mem=1900MB
#P OB98/GEN NMR

erre ene a

0 1
  C       22.623     443.760     332.194
  O       23.800     443.513     332.940
  H       21.754     443.788     332.858
  H       22.719     444.730     331.694
  H       22.487     442.982     331.434
  P       23.853     442.150     333.781
  C       22.819     441.414     336.055
  O       22.831     442.369     335.004
  C       21.408     441.322     336.635
  O       20.506     440.756     335.655
  C       21.307     440.424     337.862
  O       21.690     441.085     339.055
  C       19.826     440.115     337.864
  O       19.083     441.238     338.369
  C       19.543     439.923     336.365
  N       17.087     435.508     335.519
  C       16.645     436.719     335.916
  N       17.361     437.855     336.097
  C       18.656     437.643     335.812
  C       19.253     436.462     335.396
  C       18.403     435.351     335.249
  N       18.855     434.100     334.879
  N       20.612     436.631     335.226
  C       20.832     437.899     335.523
  N       19.688     438.544     335.916
  O       25.285     442.197     334.498
  O       23.626     440.894     333.006
  H       18.131     441.011     338.285
  H       25.512     441.315     334.853
  H       15.581     436.792     336.111
  H       21.792     438.395     335.478
  H       18.539     440.255     336.074
  H       19.565     439.256     338.496
  H       21.865     439.489     337.725
  H       21.062     442.335     336.862
  H       23.517     441.733     336.838
  H       18.198     433.335     334.946
  H       19.847     433.941     334.819
  H       23.130     440.441     335.666
  P       21.859     440.188     340.381
  C       20.250     438.803     341.873
  O       20.438     439.500     340.648
  O       21.968     441.287     341.544
  O       23.041     439.271     340.362
  H       22.538     440.972     342.268
  H       19.259     438.401     341.906
  H       20.389     439.477     342.692
  H       20.961     438.006     341.943

 6  7  8  9  10  11  12  13  14  15  25  28  32  33  34  35 0
 6-311+G(2d,p)
 ****
 36  39  40 0
 6-311+G(2d,p)
 ****
 1  2  3  4  5  16  17  18  19  20  21  22  23  24 0
 3-21G
 ****
 26  27  29  30  31  37  38  41  42  43  44  45  46  47 0
 3-21G
 ****
 48 0
 3-21G
 ****


