%nproc=1
%NoSave
%Mem=1900MB
#P OB98/GEN NMR

erre ene a

0 1
  C     -898.450     297.186    -269.119
  O     -897.970     295.987    -268.542
  H     -897.980     298.032    -268.609
  H     -899.530     297.260    -269.002
  H     -898.190     297.218    -270.183
  P     -898.560     294.616    -269.126
  C     -896.280     293.695    -269.877
  O     -897.540     294.205    -270.296
  C     -895.270     294.842    -269.743
  O     -895.770     295.784    -268.754
  C     -893.880     294.383    -269.281
  O     -892.880     295.133    -269.948
  C     -893.880     294.725    -267.790
  O     -892.550     294.914    -267.295
  C     -894.760     295.981    -267.752
  N     -894.060     298.040    -263.142
  C     -893.360     298.127    -264.283
  N     -893.610     297.557    -265.478
  C     -894.780     296.863    -265.428
  C     -895.600     296.681    -264.344
  C     -895.200     297.301    -263.145
  N     -895.910     297.195    -261.961
  N     -896.680     295.876    -264.679
  C     -896.500     295.582    -265.951
  N     -895.360     296.147    -266.447
  O     -900.000     294.653    -269.521
  O     -898.200     293.582    -267.964
  H     -892.600     295.132    -266.353
  H     -897.280     293.714    -267.642
  H     -892.450     298.739    -264.233
  H     -897.170     294.964    -266.549
  H     -894.190     296.890    -267.977
  H     -894.340     293.902    -267.222
  H     -893.710     293.308    -269.447
  H     -895.200     295.380    -270.704
  H     -895.900     292.963    -270.603
  H     -895.560     297.684    -261.150
  H     -896.770     296.669    -261.948
  H     -896.420     293.191    -268.920
  P     -892.100     294.458    -271.176
  C     -891.600     296.534    -272.641
  O     -892.360     295.326    -272.501
  O     -892.280     292.979    -271.325
  O     -890.570     294.797    -270.837
  H     -890.010     294.026    -271.104
  H     -891.864     297.017    -273.559
  H     -890.556     296.300    -272.648
  H     -891.813     297.187    -271.820

 6  7  8  9  10  11  12  13  14  15  25  28  32  33  34  35 0
 6-311+G(2d,p)
 ****
 36  39  40 0
 6-311+G(2d,p)
 ****
 1  2  3  4  5  16  17  18  19  20  21  22  23  24 0
 3-21G
 ****
 26  27  29  30  31  37  38  41  42  43  44  45  46  47 0
 3-21G
 ****
 48 0
 3-21G
 ****


