%nproc=1
%NoSave
%Mem=1900MB
#P OB98/GEN NMR

erre ene a

0 1
  C       -1.493     147.281    -452.523
  O       -1.223     147.044    -451.153
  P       -2.479     146.908    -450.163
  C       -3.173     144.635    -451.221
  O       -3.538     145.983    -450.932
  C       -4.332     143.690    -450.903
  O       -4.503     143.588    -449.477
  C       -5.671     144.144    -451.451
  O       -5.766     143.877    -452.829
  C       -6.633     143.332    -450.589
  O       -6.862     142.034    -451.165
  C       -5.877     143.218    -449.246
  N       -6.480     144.030    -448.198
  C       -7.794     143.685    -447.844
  O       -8.373     142.764    -448.426
  N       -8.424     144.429    -446.874
  C       -7.801     145.414    -446.310
  N       -8.475     146.109    -445.353
  C       -6.431     145.818    -446.669
  C       -5.833     145.091    -447.615
  O       -3.142     148.361    -450.219
  O       -2.133     146.492    -448.771
  H       -7.482     141.581    -450.552
  H       -3.636     148.550    -449.400
  H       -5.954     146.656    -446.170
  H       -4.825     145.321    -447.942
  H       -5.869     142.174    -448.903
  H       -7.614     143.815    -450.509
  H       -5.817     145.218    -451.251
  H       -4.075     142.691    -451.288
  H       -9.416     145.815    -445.133
  H       -2.307     144.353    -450.608
  H       -8.073     146.882    -444.846
  H       -2.892     144.560    -452.278
  P       -6.786     144.760    -453.696
  C       -5.619     147.031    -453.516
  O       -6.693     146.233    -453.071
  O       -8.207     144.254    -453.149
  O       -6.683     144.662    -455.180
  H       -8.926     144.651    -453.679
  H       -5.760     148.047    -453.137
  H       -5.592     147.068    -454.605
  H       -4.671     146.649    -453.123
  H       -0.571     147.349    -453.062
  H       -2.035     148.198    -452.626
  H       -2.077     146.475    -452.916

 3  4  5  6  7  8  9  10  11  12  13  21  23  27  28  29  30  32 0
 6-311+G(2d,p)
 ****
 34  35 0
 6-311+G(2d,p)
 ****
 1  2  14  15  16  17  18  19  20  22  24  25  26 0
 3-21G
 ****
 31  33  36  37  38  39  40  41  42  43  44  45  46 0
 3-21G
 ****


