%nproc=1
%NoSave
%Mem=1900MB
#P OB98/GEN NMR

erre ene a

0 1
  C      260.931     -27.044       8.218
  O      260.337     -25.766       8.326
  H      261.490     -27.093       7.282
  H      260.155     -27.813       8.205
  H      261.616     -27.219       9.051
  P      259.537     -25.450       9.681
  C      261.151     -24.719      11.576
  O      260.381     -24.317      10.452
  C      261.007     -23.714      12.716
  O      261.370     -24.368      13.970
  C      261.893     -22.467      12.576
  O      261.175     -21.349      13.114
  C      263.057     -22.772      13.506
  O      263.749     -21.598      13.922
  C      262.323     -23.509      14.625
  N      264.805     -23.402      19.000
  C      263.916     -22.498      18.450
  N      263.646     -21.391      19.176
  N      263.344     -22.663      17.289
  C      263.679     -23.829      16.686
  C      264.549     -24.801      17.120
  C      265.198     -24.594      18.399
  O      266.008     -25.348      18.926
  N      264.643     -25.822      16.207
  C      263.834     -25.467      15.224
  N      263.229     -24.264      15.470
  O      259.790     -26.768      10.552
  O      258.084     -25.159       9.514
  H      264.464     -21.872      14.534
  H      259.059     -27.403      10.426
  H      265.229     -23.219      19.893
  H      263.657     -26.034      14.321
  H      261.772     -22.824      15.282
  H      263.777     -23.434      13.007
  H      264.013     -21.219      20.099
  H      262.208     -22.248      11.552
  H      262.963     -20.738      18.812
  H      259.951     -23.435      12.803
  H      262.204     -24.779      11.281
  H      260.819     -25.710      11.905
  P      260.418     -20.378      12.091
  C      257.856     -20.814      12.016
  O      258.933     -20.136      12.641
  O      260.171     -21.322      10.819
  O      261.185     -19.151      11.725
  H      260.131     -20.781      10.009
  H      256.939     -20.546      12.497
  H      258.006     -21.871      12.095
  H      257.811     -20.537      10.984

 6  7  8  9  10  11  12  13  14  15  26  29  33  34 0
 6-311+G(2d,p)
 ****
 36  38  39  40  41 0
 6-311+G(2d,p)
 ****
 1  2  3  4  5  16  17  18  19  20  21  22  23  24  25 0
 3-21G
 ****
 27  28  30  31  32  35  37  42  43  44  45  46  47 0
 3-21G
 ****
 48  49 0
 3-21G
 ****


