%nproc=1
%NoSave
%Mem=1900MB
#P OB98/GEN NMR

erre ene a

0 1
  C      507.249     349.503    -128.562
  O      506.553     349.528    -129.794
  H      506.802     350.216    -127.860
  H      507.181     348.498    -128.133
  H      508.304     349.752    -128.721
  P      506.502     350.930    -130.568
  C      506.964     349.608    -132.768
  O      506.147     350.560    -132.092
  C      506.573     349.563    -134.238
  O      505.251     349.002    -134.388
  C      506.527     350.936    -134.909
  O      507.804     351.395    -135.320
  C      505.636     350.637    -136.109
  O      506.396     349.943    -137.114
  C      504.587     349.696    -135.484
  N      499.933     351.507    -136.633
  C      500.834     350.803    -137.358
  N      502.044     350.344    -136.975
  C      502.278     350.658    -135.689
  C      501.459     351.367    -134.832
  C      500.231     351.801    -135.349
  N      499.324     352.553    -134.621
  N      502.062     351.511    -133.592
  C      503.222     350.899    -133.703
  N      503.420     350.390    -134.966
  O      508.041     351.378    -130.662
  O      505.624     351.978    -129.972
  H      506.980     350.602    -137.533
  H      508.110     352.321    -130.911
  H      500.549     350.586    -138.388
  H      503.964     350.801    -132.915
  H      504.232     348.936    -136.186
  H      505.231     351.543    -136.570
  H      506.025     351.673    -134.269
  H      507.276     348.900    -134.767
  H      506.818     348.621    -132.311
  H      498.541     352.946    -135.123
  H      499.602     352.899    -133.714
  H      508.019     349.902    -132.662
  P      508.248     352.870    -134.871
  C      510.592     352.736    -135.983
  O      509.323     353.376    -135.945
  O      509.137     352.596    -133.558
  O      507.112     353.805    -134.590
  H      509.050     353.329    -132.917
  H      511.194     353.183    -136.747
  H      510.461     351.696    -136.195
  H      511.077     352.848    -135.036

 6  7  8  9  10  11  12  13  14  15  25  28  32  33  34  35 0
 6-311+G(2d,p)
 ****
 36  39  40 0
 6-311+G(2d,p)
 ****
 1  2  3  4  5  16  17  18  19  20  21  22  23  24 0
 3-21G
 ****
 26  27  29  30  31  37  38  41  42  43  44  45  46  47 0
 3-21G
 ****
 48 0
 3-21G
 ****


