%nproc=1
%NoSave
%Mem=1900MB
#P OB98/GEN NMR

erre ene a

0 1
  C     -495.082    -242.837     477.806
  O     -493.754    -242.882     478.282
  H     -495.140    -242.119     476.987
  H     -495.754    -242.515     478.607
  H     -495.392    -243.820     477.438
  P     -493.418    -243.965     479.415
  C     -493.991    -242.409     481.429
  O     -494.321    -243.576     480.689
  C     -494.850    -242.342     482.698
  O     -494.421    -243.389     483.608
  C     -494.724    -241.006     483.443
  O     -495.998    -240.660     484.000
  C     -493.741    -241.322     484.559
  O     -493.846    -240.446     485.676
  C     -494.120    -242.771     484.876
  N     -493.050    -243.491     485.569
  C     -493.126    -243.580     486.954
  O     -494.061    -243.158     487.632
  N     -492.052    -244.185     487.567
  C     -490.938    -244.669     486.948
  O     -490.007    -245.177     487.554
  C     -490.913    -244.543     485.480
  C     -491.951    -243.967     484.872
  O     -491.939    -243.564     479.884
  O     -493.519    -245.394     479.000
  H     -491.273    -244.041     479.358
  H     -493.369    -240.857     486.430
  H     -492.092    -244.254     488.576
  H     -490.044    -244.913     484.958
  H     -491.961    -243.849     483.790
  H     -495.037    -242.802     485.480
  H     -492.714    -241.264     484.178
  H     -494.371    -240.192     482.805
  H     -495.895    -242.549     482.433
  H     -494.186    -241.528     480.817
  H     -492.931    -242.437     481.690
  P     -496.836    -239.507     483.259
  C     -496.324    -237.805     485.182
  O     -496.243    -238.114     483.799
  O     -498.258    -239.636     483.977
  O     -496.858    -239.663     481.773
  H     -498.201    -239.857     484.922
  H     -495.883    -236.846     485.360
  H     -495.799    -238.549     485.745
  H     -497.350    -237.787     485.484

 6  7  8  9  10  11  12  13  14  15  16  27  31  32  33  34  35 0
 6-311+G(2d,p)
 ****
 36  37 0
 6-311+G(2d,p)
 ****
 1  2  3  4  5  17  18  19  20  21  22  23  24  25 0
 3-21G
 ****
 26  28  29  30  38  39  40  41  42  43  44  45 0
 3-21G
 ****


