%nproc=1
%NoSave
%Mem=1900MB
#P OB98/GEN NMR

erre ene a

0 1
  C       87.375      30.028    -160.315
  O       86.861      29.821    -161.616
  H       88.354      29.542    -160.239
  H       86.704      29.583    -159.573
  H       87.493      31.098    -160.113
  P       85.545      30.648    -162.002
  C       84.141      28.526    -161.351
  O       84.301      29.938    -161.265
  C       82.663      28.169    -161.488
  O       81.900      28.732    -160.404
  C       81.996      28.737    -162.732
  O       82.393      28.074    -163.917
  C       80.527      28.534    -162.382
  O       80.083      27.212    -162.706
  C       80.520      28.758    -160.851
  N       79.840      29.986    -160.487
  C       78.457      29.875    -160.291
  O       77.900      28.777    -160.409
  N       77.737      31.004    -160.003
  C       78.338      32.155    -159.940
  N       77.563      33.239    -159.688
  C       79.795      32.318    -160.142
  C       80.479      31.203    -160.407
  O       85.330      30.257    -163.539
  O       85.632      32.115    -161.753
  H       80.244      27.094    -163.666
  H       85.370      29.299    -163.709
  H       80.247      33.296    -160.069
  H       81.550      31.234    -160.568
  H       80.015      27.921    -160.344
  H       79.884      29.231    -162.934
  H       82.186      29.820    -162.801
  H       82.566      27.075    -161.448
  H       76.563      33.091    -159.613
  H       84.570      28.033    -160.470
  H       77.907      34.191    -159.695
  H       84.699      28.180    -162.227
  P       82.338      28.806    -165.341
  C       80.819      27.077    -166.503
  O       80.925      28.403    -166.005
  O       83.513      28.580    -166.220
  O       82.092      30.342    -164.949
  H       81.276      30.513    -164.448
  H       79.843      26.928    -166.917
  H       80.978      26.382    -165.705
  H       81.556      26.921    -167.263

 6  7  8  9  10  11  12  13  14  15  16  26  30  31  32  33  35 0
 6-311+G(2d,p)
 ****
 37  38 0
 6-311+G(2d,p)
 ****
 1  2  3  4  5  17  18  19  20  21  22  23  24  25 0
 3-21G
 ****
 27  28  29  34  36  39  40  41  42  43  44  45  46 0
 3-21G
 ****


