%nproc=1
%NoSave
%Mem=1900MB
#P OB98/GEN NMR

erre ene a

0 1
  C       77.058     136.393    -254.398
  O       75.876     136.519    -253.621
  P       74.848     135.288    -253.624
  C       76.014     134.121    -251.633
  O       75.634     134.035    -252.999
  C       75.786     132.793    -250.920
  O       76.452     132.831    -249.628
  C       74.309     132.455    -250.668
  O       74.082     131.071    -250.972
  C       74.156     132.628    -249.167
  O       73.090     131.843    -248.645
  C       75.548     132.206    -248.697
  N       75.205     130.810    -243.856
  C       75.001     130.071    -245.004
  N       74.595     128.793    -244.833
  N       75.178     130.538    -246.212
  C       75.616     131.821    -246.230
  C       75.862     132.654    -245.162
  C       75.605     132.139    -243.834
  O       75.679     132.772    -242.783
  N       76.312     133.880    -245.580
  C       76.336     133.794    -246.895
  N       75.875     132.578    -247.340
  O       74.729     134.926    -255.179
  O       73.511     135.573    -253.033
  H       73.332     130.907    -248.779
  H       73.793     134.959    -255.455
  H       75.037     130.406    -242.952
  H       76.644     134.588    -247.564
  H       75.668     131.118    -248.782
  H       73.955     133.682    -248.945
  H       74.476     128.360    -243.931
  H       73.604     133.076    -251.230
  H       74.463     128.229    -245.662
  H       76.270     131.998    -251.504
  H       75.416     134.897    -251.142
  H       77.070     134.403    -251.574
  P       72.687     130.729    -251.690
  C       73.781     131.418    -253.950
  O       72.689     131.552    -253.062
  O       71.609     131.490    -250.787
  O       72.407     129.267    -251.803
  H       70.733     131.069    -250.871
  H       74.457     130.610    -253.655
  H       74.341     132.355    -253.969
  H       73.401     131.210    -254.953
  H       77.645     137.283    -254.302
  H       76.796     136.248    -255.425
  H       77.624     135.553    -254.053

 3  4  5  6  7  8  9  10  11  12  23  26  30  31  33  0
 6-311+G(2d,p)
 ****
 35  36  37  38 0
 6-311+G(2d,p)
 ****
 1  2  13  14  15  16  17  18  19  20  21  22  24  25  27  28  29 0
 3-21G
 ****
 32  34  39  40  41  42  43  44  45  46  47  48  49 0
 3-21G
 ****


