%nproc=1
%NoSave
%Mem=1900MB
#P OB98/GEN NMR

erre ene a

0 1
  C     1876.731       4.452      76.678
  O     1875.430       4.874      77.049
  H     1877.374       5.322      76.529
  H     1877.149       3.838      77.476
  H     1876.685       3.863      75.757
  P     1874.634       5.786      76.001
  C     1872.782       4.003      75.628
  O     1873.835       4.766      75.051
  C     1871.442       4.527      75.128
  O     1871.359       4.400      73.688
  C     1870.225       3.778      75.663
  O     1869.866       4.214      76.980
  C     1869.173       4.166      74.651
  O     1868.719       5.512      74.902
  C     1869.973       4.115      73.333
  N     1866.814       0.644      71.317
  C     1866.569       1.816      71.947
  N     1867.477       2.675      72.452
  C     1868.725       2.233      72.273
  C     1869.113       1.054      71.660
  C     1868.092       0.234      71.162
  N     1868.319      -0.967      70.536
  N     1870.492       0.919      71.691
  C     1870.915       2.021      72.280
  N     1869.893       2.829      72.665
  O     1875.775       6.351      75.043
  O     1873.790       6.870      76.593
  H     1868.011       5.697      74.254
  H     1875.466       7.160      74.585
  H     1865.533       2.096      72.052
  H     1871.960       2.261      72.451
  H     1869.651       4.879      72.622
  H     1868.295       3.524      74.672
  H     1870.382       2.690      75.635
  H     1871.376       5.595      75.366
  H     1872.820       4.095      76.712
  H     1867.514      -1.564      70.386
  H     1869.261      -1.353      70.550
  H     1872.903       2.949      75.338
  P     1868.896       3.262      77.823
  C     1870.877       2.691      79.424
  O     1869.851       2.206      78.555
  O     1868.156       2.409      76.710
  O     1867.931       4.001      78.717
  H     1867.273       2.115      77.018
  H     1871.421       1.864      79.830
  H     1870.434       3.252      80.221
  H     1871.544       3.320      78.872

 6  7  8  9  10  11  12  13  14  15  25  28  32  33  34  35 0
 6-311+G(2d,p)
 ****
 36  39  40 0
 6-311+G(2d,p)
 ****
 1  2  3  4  5  16  17  18  19  20  21  22  23  24 0
 3-21G
 ****
 26  27  29  30  31  37  38  41  42  43  44  45  46  47 0
 3-21G
 ****
 48 0
 3-21G
 ****


