%nproc=1
%NoSave
%Mem=1900MB
#P OB98/GEN NMR

erre ene a

0 1
  C      -25.032     493.794    -762.614
  O      -25.061     494.540    -761.396
  P      -25.026     493.699    -760.041
  C      -22.454     493.222    -760.017
  O      -23.559     493.882    -759.411
  C      -21.206     493.403    -759.145
  O      -20.699     494.744    -759.267
  C      -21.452     493.185    -757.646
  O      -21.523     491.804    -757.330
  C      -20.268     493.913    -757.035
  O      -19.108     493.061    -757.014
  C      -20.065     495.089    -758.015
  N      -20.572     496.345    -757.480
  C      -19.843     496.922    -756.436
  O      -18.831     496.380    -755.969
  N      -20.331     498.083    -755.915
  C      -21.474     498.720    -756.308
  O      -21.868     499.752    -755.782
  C      -22.213     498.076    -757.395
  C      -21.756     496.951    -757.918
  O      -25.036     492.166    -760.518
  O      -26.151     493.996    -759.090
  H      -18.379     493.614    -756.665
  H      -25.547     491.627    -759.879
  H      -19.801     498.519    -755.190
  H      -23.141     498.557    -757.725
  H      -22.306     496.427    -758.721
  H      -18.996     495.210    -758.233
  H      -20.469     494.221    -756.004
  H      -22.393     493.717    -757.363
  H      -20.442     492.700    -759.504
  H      -22.288     493.621    -760.991
  H      -22.696     492.154    -760.119
  P      -22.584     491.381    -756.185
  C      -24.794     491.083    -757.509
  O      -23.666     490.474    -756.953
  O      -23.309     492.771    -755.903
  O      -21.923     490.764    -755.002
  H      -23.346     493.328    -756.706
  H      -24.607     492.082    -757.894
  H      -25.602     491.152    -756.739
  H      -25.194     490.459    -758.329
  H      -25.060     494.467    -763.445
  H      -25.880     493.143    -762.654
  H      -24.134     493.213    -762.655

 3  4  5  6  7  8  9  10  11  12  13  23  28  29  30  31  32 0
 6-311+G(2d,p)
 ****
 33  34 0
 6-311+G(2d,p)
 ****
 1  2  14  15  16  17  18  19  20  21  22  24  25  26 0
 3-21G
 ****
 27  35  36  37  38  39  40  41  42  43  44  45 0
 3-21G
 ****


