%nproc=1
%NoSave
%Mem=1900MB
#P OB98/GEN NMR

erre ene a

0 1
  C     -258.800      -7.653     296.790
  O     -259.586      -7.949     297.928
  P     -258.991      -7.708     299.394
  C     -258.528     -10.188     299.892
  O     -257.960      -8.897     299.702
  C     -257.863     -10.898     301.067
  O     -256.492     -11.224     300.747
  C     -257.796     -10.061     302.339
  O     -259.058     -10.022     302.984
  C     -256.706     -10.789     303.112
  O     -257.242     -11.939     303.786
  C     -255.751     -11.219     301.990
  N     -251.751      -9.265     304.478
  C     -252.818      -9.975     304.903
  N     -253.866     -10.429     304.183
  C     -253.748     -10.057     302.899
  C     -252.737      -9.300     302.322
  C     -251.684      -8.915     303.171
  N     -250.559      -8.244     302.733
  N     -252.992      -9.097     300.981
  C     -254.135      -9.709     300.752
  N     -254.595     -10.355     301.864
  O     -260.001      -7.457     300.463
  O     -258.030      -6.441     299.213
  H     -257.803     -12.416     303.144
  H     -258.345      -5.714     299.785
  H     -252.825     -10.221     305.960
  H     -254.656      -9.726     299.805
  H     -255.381     -12.240     302.137
  H     -256.237     -10.157     303.878
  H     -257.455      -9.050     302.101
  H     -258.400     -11.838     301.250
  H     -258.376     -10.769     298.975
  H     -249.805      -8.148     303.394
  H     -250.352      -8.246     301.738
  H     -259.606     -10.088     300.070
  P     -259.404      -8.822     303.981
  C     -258.084      -9.602     306.035
  O     -258.156      -8.668     304.976
  O     -260.740      -8.891     304.639
  O     -259.281      -7.514     303.058
  H     -259.914      -6.840     303.365
  H     -258.788      -9.319     306.824
  H     -257.068      -9.590     306.445
  H     -258.313     -10.613     305.683
  H     -259.357      -7.875     295.904
  H     -257.909      -8.245     296.808
  H     -258.539      -6.615     296.797

 3  4  5  6  7  8  9  10  11  12  22  25  29  30  31  32 0
 6-311+G(2d,p)
 ****
 33  36  37 0
 6-311+G(2d,p)
 ****
 1  2  13  14  15  16  17  18  19  20  21  23  24  26 0
 3-21G
 ****
 27  28  34  35  38  39  40  41  42  43  44  45  46  47  48 0
 3-21G
 ****


