%nproc=1
%NoSave
%Mem=1900MB
#P OB98/GEN NMR

erre ene a

0 1
  C      252.878    -947.929     160.069
  O      254.063    -947.201     159.857
  H      252.803    -948.181     161.130
  H      252.908    -948.863     159.493
  H      252.008    -947.344     159.778
  P      254.327    -946.654     158.366
  C      256.516    -947.982     157.960
  O      255.151    -947.804     157.605
  C      257.069    -949.275     157.357
  O      256.500    -950.413     158.077
  C      256.739    -949.464     155.859
  O      257.847    -950.126     155.242
  C      255.566    -950.432     155.900
  O      255.398    -951.137     154.664
  C      255.981    -951.314     157.078
  N      254.445    -956.005     158.082
  C      255.666    -955.532     157.611
  N      256.610    -956.468     157.367
  N      255.912    -954.276     157.398
  C      254.878    -953.455     157.709
  C      253.629    -953.786     158.188
  C      253.353    -955.196     158.395
  O      252.292    -955.670     158.796
  N      252.856    -952.678     158.360
  C      253.629    -951.663     157.990
  N      254.868    -952.090     157.598
  O      255.417    -945.503     158.608
  O      253.123    -946.145     157.650
  H      255.002    -950.525     154.016
  H      254.974    -944.636     158.705
  H      254.297    -956.983     158.219
  H      253.343    -950.620     157.999
  H      256.770    -952.026     156.815
  H      254.639    -949.891     156.115
  H      256.503    -957.449     157.551
  H      256.518    -948.536     155.330
  H      257.518    -956.138     157.061
  H      258.156    -949.300     157.524
  H      256.595    -948.044     159.059
  H      257.105    -947.128     157.605
  P      258.931    -949.223     154.468
  C      257.879    -949.671     152.128
  O      258.262    -948.707     153.107
  O      259.989    -950.312     153.958
  O      259.572    -948.180     155.320
  H      260.865    -949.901     153.866
  H      257.451    -949.172     151.284
  H      257.159    -950.340     152.549
  H      258.740    -950.224     151.816

 6  7  8  9  10  11  12  13  14  15  26  29  33  34 0
 6-311+G(2d,p)
 ****
 36  38  39  40  41 0
 6-311+G(2d,p)
 ****
 1  2  3  4  5  16  17  18  19  20  21  22  23  24  25 0
 3-21G
 ****
 27  28  30  31  32  35  37  42  43  44  45  46  47 0
 3-21G
 ****
 48  49 0
 3-21G
 ****


