%nproc=1
%NoSave
%Mem=1900MB
#P OB98/GEN NMR

erre ene a

0 1
  C     -265.434     326.033     115.169
  O     -266.408     325.064     115.492
  H     -265.121     325.879     114.133
  H     -264.560     325.924     115.817
  H     -265.842     327.043     115.265
  P     -267.138     325.146     116.919
  C     -266.078     322.929     117.693
  O     -266.234     324.318     117.951
  C     -266.006     322.160     119.010
  O     -265.943     320.739     118.758
  C     -264.777     322.488     119.850
  O     -264.920     323.743     120.485
  C     -264.747     321.288     120.783
  O     -265.701     321.437     121.848
  C     -265.176     320.144     119.830
  N     -264.037     319.385     119.307
  C     -263.421     318.511     120.198
  O     -263.786     318.370     121.362
  N     -262.331     317.837     119.713
  C     -261.764     318.018     118.484
  O     -260.668     317.560     118.172
  C     -262.501     318.893     117.562
  C     -263.578     319.541     118.014
  O     -268.588     324.796     116.926
  O     -266.900     326.665     117.375
  H     -267.713     327.180     117.209
  H     -265.801     320.556     122.255
  H     -261.848     317.238     120.365
  H     -262.118     319.014     116.556
  H     -264.120     320.216     117.358
  H     -265.843     319.444     120.348
  H     -263.771     321.142     121.247
  H     -263.877     322.469     119.224
  H     -266.926     322.362     119.574
  H     -265.147     322.781     117.134
  H     -266.918     322.581     117.085
  P     -263.712     324.791     120.529
  C     -262.955     324.181     122.903
  O     -262.595     324.219     121.528
  O     -264.111     326.205     120.793
  O     -263.015     324.652     119.094
  H     -262.952     325.537     118.685
  H     -262.141     323.785     123.474
  H     -263.816     323.558     123.029
  H     -263.179     325.171     123.241

 6  7  8  9  10  11  12  13  14  15  16  27  31  32  33  34  35 0
 6-311+G(2d,p)
 ****
 36  37 0
 6-311+G(2d,p)
 ****
 1  2  3  4  5  17  18  19  20  21  22  23  24  25 0
 3-21G
 ****
 26  28  29  30  38  39  40  41  42  43  44  45 0
 3-21G
 ****


