%nproc=1
%NoSave
%Mem=1900MB
#P OB98/GEN NMR

erre ene a

0 1
  C     -464.814    -579.866     488.162
  O     -463.531    -580.445     488.097
  H     -464.706    -578.791     488.335
  H     -465.380    -580.301     488.993
  H     -465.367    -580.016     487.227
  P     -463.388    -581.940     487.534
  C     -461.407    -581.195     486.047
  O     -461.868    -582.105     487.034
  C     -459.983    -580.709     486.373
  O     -460.043    -579.819     487.515
  C     -459.077    -581.883     486.766
  O     -457.700    -581.627     486.466
  C     -459.245    -581.946     488.282
  O     -458.148    -582.577     488.941
  C     -459.398    -580.462     488.628
  N     -459.290    -579.955     493.701
  C     -458.299    -580.385     492.854
  N     -457.114    -580.719     493.426
  N     -458.450    -580.498     491.554
  C     -459.702    -580.196     491.129
  C     -460.776    -579.782     491.877
  C     -460.589    -579.627     493.312
  O     -461.447    -579.275     494.107
  N     -461.886    -579.574     491.096
  C     -461.493    -579.875     489.875
  N     -460.163    -580.232     489.838
  O     -464.204    -581.906     486.153
  O     -463.886    -583.026     488.438
  H     -457.445    -581.909     489.046
  H     -464.473    -582.799     485.904
  H     -459.114    -579.853     494.688
  H     -462.111    -579.836     488.991
  H     -458.419    -579.992     488.761
  H     -460.139    -582.529     488.498
  H     -457.031    -580.838     494.421
  H     -459.371    -582.822     486.305
  H     -456.500    -581.318     492.873
  H     -459.587    -580.139     485.534
  H     -462.107    -580.355     486.035
  H     -461.441    -581.657     485.060
  P     -457.151    -582.030     485.022
  C     -455.170    -580.320     484.572
  O     -455.601    -581.629     484.898
  O     -457.887    -581.024     484.031
  O     -457.393    -583.460     484.651
  H     -458.483    -581.500     483.434
  H     -454.101    -580.292     484.547
  H     -455.527    -579.633     485.310
  H     -455.556    -580.046     483.613

 6  7  8  9  10  11  12  13  14  15  26  29  33  34 0
 6-311+G(2d,p)
 ****
 36  38  39  40  41 0
 6-311+G(2d,p)
 ****
 1  2  3  4  5  16  17  18  19  20  21  22  23  24  25 0
 3-21G
 ****
 27  28  30  31  32  35  37  42  43  44  45  46  47 0
 3-21G
 ****
 48  49 0
 3-21G
 ****


