%nproc=1
%NoSave
%Mem=1900MB
#P OB98/GEN NMR

erre ene a

0 1
  C     -302.892      29.983    -414.788
  O     -303.685      30.542    -415.819
  P     -304.197      29.643    -417.039
  C     -302.074      30.334    -418.291
  O     -302.917      29.251    -417.925
  C     -302.070      30.548    -419.805
  O     -301.114      31.594    -420.134
  C     -301.693      29.305    -420.628
  O     -302.450      29.370    -421.841
  C     -300.222      29.538    -420.930
  O     -299.764      28.791    -422.048
  C     -300.224      31.050    -421.133
  N     -295.993      32.533    -423.588
  C     -297.122      31.934    -424.024
  N     -298.193      31.547    -423.301
  C     -298.020      31.840    -422.004
  C     -296.915      32.421    -421.407
  C     -295.863      32.794    -422.266
  N     -294.720      33.435    -421.844
  N     -297.092      32.503    -420.038
  C     -298.282      31.983    -419.816
  N     -298.906      31.630    -420.983
  O     -305.340      30.212    -417.817
  O     -304.604      28.255    -416.353
  H     -300.281      29.056    -422.831
  H     -305.576      28.176    -416.315
  H     -297.171      31.745    -425.094
  H     -298.737      31.841    -418.847
  H     -300.607      31.335    -422.119
  H     -299.620      29.255    -420.059
  H     -301.874      28.358    -420.108
  H     -303.062      30.917    -420.101
  H     -301.059      30.101    -417.958
  H     -294.096      33.778    -422.556
  H     -294.716      33.875    -420.925
  H     -302.403      31.248    -417.784
  P     -303.182      28.058    -422.398
  C     -301.729      28.246    -424.497
  O     -302.184      27.396    -423.461
  O     -304.582      28.259    -422.872
  O     -303.116      27.039    -421.160
  H     -303.766      26.323    -421.290
  H     -302.497      28.318    -425.271
  H     -300.819      27.822    -424.933
  H     -301.508      29.252    -424.118
  H     -302.654      30.741    -414.071
  H     -301.989      29.591    -415.206
  H     -303.434      29.195    -414.308

 3  4  5  6  7  8  9  10  11  12  22  25  29  30  31  32 0
 6-311+G(2d,p)
 ****
 33  36  37 0
 6-311+G(2d,p)
 ****
 1  2  13  14  15  16  17  18  19  20  21  23  24  26 0
 3-21G
 ****
 27  28  34  35  38  39  40  41  42  43  44  45  46  47  48 0
 3-21G
 ****


