%nproc=1
%NoSave
%Mem=1900MB
#P OB98/GEN NMR

erre ene a

0 1
  C     -103.916      74.575     -79.389
  O     -103.882      74.849     -78.006
  H     -102.907      74.693     -79.792
  H     -104.580      75.287     -79.888
  H     -104.256      73.556     -79.587
  P     -105.089      74.336     -77.090
  C     -104.186      71.922     -77.208
  O     -105.308      72.775     -77.397
  C     -104.566      70.634     -76.477
  O     -105.101      70.941     -75.171
  C     -105.657      69.851     -77.207
  O     -105.201      69.001     -78.244
  C     -106.275      69.044     -76.070
  O     -105.543      67.827     -75.848
  C     -106.131      69.983     -74.871
  N     -110.620      69.823     -72.439
  C     -109.670      68.831     -72.575
  N     -109.983      67.627     -72.045
  N     -108.530      69.004     -73.190
  C     -108.397      70.228     -73.752
  C     -109.276      71.287     -73.696
  C     -110.512      71.102     -72.964
  O     -111.390      71.946     -72.821
  N     -108.796      72.376     -74.384
  C     -107.668      71.951     -74.915
  N     -107.370      70.663     -74.539
  O     -106.382      75.004     -77.763
  O     -104.990      74.696     -75.639
  H     -105.677      67.244     -76.617
  H     -107.084      75.114     -77.096
  H     -111.468      69.641     -71.931
  H     -107.019      72.540     -75.554
  H     -105.811      69.441     -73.972
  H     -107.307      68.756     -76.293
  H     -110.892      67.415     -71.667
  H     -106.418      70.533     -77.598
  H     -109.442      66.816     -72.351
  H     -103.665      70.028     -76.324
  H     -103.459      72.485     -76.620
  H     -103.718      71.693     -78.169
  P     -106.247      68.357     -79.270
  C     -105.372      69.486     -81.446
  O     -106.403      69.388     -80.487
  O     -107.636      68.481     -78.485
  O     -105.956      66.951     -79.665
  H     -107.842      67.643     -78.030
  H     -105.638      70.216     -82.182
  H     -105.233      68.536     -81.919
  H     -104.463      69.780     -80.964

 6  7  8  9  10  11  12  13  14  15  26  29  33  34 0
 6-311+G(2d,p)
 ****
 36  38  39  40  41 0
 6-311+G(2d,p)
 ****
 1  2  3  4  5  16  17  18  19  20  21  22  23  24  25 0
 3-21G
 ****
 27  28  30  31  32  35  37  42  43  44  45  46  47 0
 3-21G
 ****
 48  49 0
 3-21G
 ****


