%nproc=1
%NoSave
%Mem=1900MB
#P OB98/GEN NMR

erre ene a

0 1
  C       -6.733     195.459     127.056
  O       -5.878     196.328     126.344
  H       -7.746     195.556     126.657
  H       -6.747     195.726     128.117
  H       -6.403     194.426     126.937
  P       -4.345     196.384     126.816
  C       -4.688     198.896     127.386
  O       -4.220     197.628     127.823
  C       -3.601     199.944     127.596
  O       -4.081     201.242     127.175
  C       -3.180     200.119     129.048
  O       -2.302     199.096     129.481
  C       -2.514     201.485     128.993
  O       -1.147     201.386     128.559
  C       -3.371     202.231     127.948
  N       -4.279     203.192     128.570
  C       -3.990     204.533     128.337
  O       -3.033     204.910     127.658
  N       -4.814     205.438     128.947
  C       -5.855     205.138     129.778
  O       -6.513     206.001     130.353
  C       -6.123     203.705     129.975
  C       -5.331     202.811     129.379
  O       -3.580     196.880     125.500
  O       -3.797     195.100     127.337
  H       -3.135     196.125     125.070
  H       -0.810     202.301     128.509
  H       -4.614     206.415     128.800
  H       -6.948     203.432     130.624
  H       -5.498     201.747     129.527
  H       -2.730     202.779     127.247
  H       -2.501     201.966     129.970
  H       -4.064     200.186     129.695
  H       -2.736     199.677     126.973
  H       -5.574     199.178     127.967
  H       -4.968     198.829     126.330
  P       -1.891     199.044     131.032
  C        0.546     199.894     130.537
  O       -0.681     200.080     131.219
  O       -1.193     197.608     131.119
  O       -3.038     199.246     131.963
  H       -0.696     197.378     130.315
  H        1.220     200.685     130.792
  H        0.372     199.901     129.481
  H        0.974     198.956     130.822

 6  7  8  9  10  11  12  13  14  15  16  27  31  32  33  34  35 0
 6-311+G(2d,p)
 ****
 36  37 0
 6-311+G(2d,p)
 ****
 1  2  3  4  5  17  18  19  20  21  22  23  24  25 0
 3-21G
 ****
 26  28  29  30  38  39  40  41  42  43  44  45 0
 3-21G
 ****


