%nproc=1
%NoSave
%Mem=1900MB
#P OB98/GEN NMR

erre ene a

0 1
  C      -20.551    -186.363    -470.892
  O      -19.340    -186.126    -470.203
  H      -21.401    -186.201    -470.224
  H      -20.625    -185.664    -471.731
  H      -20.571    -187.385    -471.280
  P      -19.055    -187.027    -468.906
  C      -18.124    -185.219    -467.295
  O      -17.832    -186.342    -468.119
  C      -17.252    -184.031    -467.707
  O      -17.940    -183.303    -468.756
  C      -16.939    -183.044    -466.569
  O      -15.523    -182.918    -466.400
  C      -17.484    -181.713    -467.060
  O      -16.630    -180.609    -466.755
  C      -17.624    -181.919    -468.563
  N      -18.585    -177.276    -470.429
  C      -17.431    -177.968    -470.308
  N      -17.255    -179.240    -469.903
  C      -18.436    -179.819    -469.627
  C      -19.697    -179.246    -469.720
  C      -19.745    -177.900    -470.127
  N      -20.913    -177.178    -470.193
  N      -20.674    -180.148    -469.342
  C      -20.013    -181.229    -468.983
  N      -18.660    -181.072    -469.120
  O      -18.410    -188.359    -469.518
  O      -20.255    -187.329    -468.070
  H      -16.780    -180.394    -465.816
  H      -18.845    -189.142    -469.131
  H      -16.523    -177.424    -470.569
  H      -20.457    -182.132    -468.574
  H      -16.685    -181.709    -469.098
  H      -18.459    -181.535    -466.593
  H      -17.399    -183.332    -465.615
  H      -16.323    -184.423    -468.139
  H      -17.913    -185.467    -466.248
  H      -20.843    -176.190    -470.380
  H      -21.769    -177.605    -469.866
  H      -19.188    -184.975    -467.390
  P      -14.988    -182.731    -464.894
  C      -13.471    -180.648    -465.267
  O      -13.539    -182.040    -464.982
  O      -14.649    -184.230    -464.442
  O      -15.970    -182.076    -463.983
  H      -14.724    -184.315    -463.473
  H      -12.447    -180.339    -465.292
  H      -13.990    -180.102    -464.507
  H      -13.925    -180.456    -466.217

 6  7  8  9  10  11  12  13  14  15  25  28  32  33  34  35 0
 6-311+G(2d,p)
 ****
 36  39  40 0
 6-311+G(2d,p)
 ****
 1  2  3  4  5  16  17  18  19  20  21  22  23  24 0
 3-21G
 ****
 26  27  29  30  31  37  38  41  42  43  44  45  46  47  48 0
 3-21G
 ****


