%nproc=1
%NoSave
%Mem=1900MB
#P OB98/GEN NMR

erre ene a

0 1
  C      493.036     262.347     389.199
  O      494.000     263.392     389.170
  P      495.035     263.475     390.392
  C      494.999     264.552     392.768
  O      494.255     264.213     391.594
  C      494.186     265.466     393.686
  O      494.181     266.807     393.135
  C      492.735     265.027     393.897
  O      492.381     265.312     395.248
  C      491.955     265.945     392.981
  O      490.604     266.096     393.402
  C      492.807     267.232     393.042
  N      492.579     268.101     391.886
  C      491.381     268.808     391.857
  O      490.531     268.624     392.730
  N      491.143     269.669     390.810
  C      491.989     269.726     389.826
  N      491.717     270.597     388.825
  C      493.219     268.903     389.769
  C      493.457     268.139     390.828
  O      496.084     264.580     389.903
  O      495.692     262.186     390.745
  H      490.313     267.003     393.192
  H      496.971     264.395     390.248
  H      493.866     268.963     388.903
  H      494.337     267.514     390.884
  H      492.565     267.801     393.958
  H      491.952     265.546     391.952
  H      492.587     263.967     393.688
  H      494.712     265.529     394.656
  H      490.867     271.137     388.870
  H      495.901     265.082     392.466
  H      492.319     270.705     388.009
  H      495.281     263.639     393.288
  P      491.202     264.445     395.904
  C      488.642     264.708     396.032
  O      489.847     265.158     395.438
  O      491.290     264.910     397.449
  O      491.267     262.961     395.787
  H      490.648     264.403     397.977
  H      487.828     265.373     395.729
  H      488.729     264.727     397.128
  H      488.429     263.697     395.693
  H      492.415     262.410     388.330
  H      492.432     262.444     390.077
  H      493.536     261.401     389.212

 3  4  5  6  7  8  9  10  11  12  13  21  23  27  28  29  30  32 0
 6-311+G(2d,p)
 ****
 34  35 0
 6-311+G(2d,p)
 ****
 1  2  14  15  16  17  18  19  20  22  24  25  26 0
 3-21G
 ****
 31  33  36  37  38  39  40  41  42  43  44  45  46 0
 3-21G
 ****


