%nproc=1
%NoSave
%Mem=1900MB
#P OB98/GEN NMR

erre ene a

0 1
  C      182.855     132.836     -88.397
  O      182.688     132.101     -87.200
  H      183.925     132.981     -88.575
  H      182.376     133.816     -88.310
  H      182.427     132.284     -89.240
  P      181.181     131.865     -86.698
  C      179.185     133.428     -86.113
  O      180.590     133.305     -86.313
  C      178.918     134.228     -84.840
  O      179.126     133.382     -83.680
  C      179.847     135.417     -84.645
  O      179.471     136.542     -85.427
  C      179.685     135.670     -83.154
  O      178.537     136.481     -82.877
  C      179.513     134.246     -82.589
  N      180.728     133.779     -81.924
  C      181.004     134.374     -80.693
  O      180.291     135.233     -80.179
  N      182.163     133.971     -80.082
  C      183.078     133.092     -80.597
  O      184.123     132.817     -80.022
  C      182.738     132.509     -81.905
  C      181.596     132.876     -82.504
  O      181.380     131.143     -85.282
  O      180.327     131.062     -87.619
  H      181.155     130.197     -85.358
  H      178.484     136.550     -81.900
  H      182.381     134.384     -79.192
  H      183.440     131.809     -82.343
  H      181.333     132.470     -83.477
  H      178.692     134.220     -81.865
  H      180.552     136.189     -82.752
  H      180.889     135.124     -84.847
  H      177.870     134.555     -84.846
  H      178.740     132.434     -86.011
  H      178.744     133.924     -86.987
  P      180.470     137.003     -86.598
  C      182.958     137.857     -86.620
  O      181.842     137.398     -85.872
  O      179.808     138.401     -87.011
  O      180.582     136.006     -87.702
  H      179.327     138.805     -86.267
  H      183.770     138.067     -85.956
  H      182.691     138.748     -87.149
  H      183.254     137.102     -87.318

 6  7  8  9  10  11  12  13  14  15  16  27  31  32  33  34  35 0
 6-311+G(2d,p)
 ****
 36  37 0
 6-311+G(2d,p)
 ****
 1  2  3  4  5  17  18  19  20  21  22  23  24  25 0
 3-21G
 ****
 26  28  29  30  38  39  40  41  42  43  44  45 0
 3-21G
 ****


