%nproc=1
%NoSave
%Mem=1900MB
#P OB98/GEN NMR

erre ene a

0 1
  C      -32.474     -65.593    -335.989
  O      -32.971     -66.886    -336.290
  P      -34.117     -67.487    -335.340
  C      -33.763     -69.959    -336.174
  O      -33.726     -69.024    -335.107
  C      -32.819     -71.129    -335.884
  O      -31.448     -70.681    -335.934
  C      -32.990     -71.753    -334.505
  O      -34.129     -72.599    -334.446
  C      -31.656     -72.472    -334.338
  O      -31.672     -73.724    -335.046
  C      -30.682     -71.488    -335.019
  N      -29.945     -70.658    -334.067
  C      -28.584     -70.922    -333.943
  O      -28.008     -71.798    -334.589
  N      -27.907     -70.152    -333.036
  C      -28.454     -69.212    -332.211
  O      -27.810     -68.582    -331.383
  C      -29.902     -69.002    -332.363
  C      -30.570     -69.720    -333.269
  O      -35.350     -67.531    -336.359
  O      -34.339     -66.680    -334.109
  H      -35.053     -67.617    -337.282
  H      -30.785     -74.118    -334.929
  H      -26.916     -70.308    -332.945
  H      -30.373     -68.270    -331.719
  H      -31.638     -69.585    -333.387
  H      -29.955     -72.038    -335.630
  H      -31.422     -72.691    -333.291
  H      -33.079     -70.964    -333.748
  H      -32.959     -71.885    -336.667
  H      -33.451     -69.459    -337.096
  H      -34.789     -70.318    -336.299
  P      -35.149     -72.345    -333.225
  C      -35.842     -74.842    -333.569
  O      -35.549     -73.792    -332.672
  O      -36.452     -71.844    -334.008
  O      -34.633     -71.386    -332.204
  H      -36.628     -72.357    -334.814
  H      -35.738     -75.793    -333.042
  H      -35.162     -74.836    -334.425
  H      -36.871     -74.745    -333.922
  H      -31.721     -65.326    -336.701
  H      -32.051     -65.593    -335.006
  H      -33.274     -64.884    -336.033

 3  4  5  6  7  8  9  10  11  12  13  24  28  29  30  31  32 0
 6-311+G(2d,p)
 ****
 33  34 0
 6-311+G(2d,p)
 ****
 1  2  14  15  16  17  18  19  20  21  22  23  25  26  27 0
 3-21G
 ****
 35  36  37  38  39  40  41  42  43  44  45 0
 3-21G
 ****


