%nproc=1
%NoSave
%Mem=1900MB
#P OB98/GEN NMR

erre ene a

0 1
  C      -34.189      11.416    -208.916
  O      -33.393      11.291    -207.754
  P      -31.943      10.607    -207.807
  C      -32.991       8.409    -206.965
  O      -32.191       9.024    -207.964
  C      -32.274       7.180    -206.387
  O      -32.108       6.191    -207.448
  C      -30.871       7.509    -205.831
  O      -30.644       7.074    -204.489
  C      -29.944       6.914    -206.877
  O      -28.633       6.660    -206.411
  C      -30.756       5.700    -207.354
  N      -30.269       5.165    -208.622
  C      -29.922       3.811    -208.649
  O      -30.010       3.052    -207.685
  N      -29.397       3.350    -209.821
  C      -29.082       4.111    -210.915
  O      -28.527       3.649    -211.896
  C      -29.436       5.535    -210.818
  C      -30.022       5.984    -209.703
  O      -31.025      10.978    -206.697
  O      -31.407      11.006    -209.266
  H      -28.113       6.294    -207.156
  H      -31.956      10.693    -210.006
  H      -29.143       2.374    -209.857
  H      -29.188       6.164    -211.662
  H      -30.290       7.036    -209.602
  H      -30.751       4.900    -206.612
  H      -29.853       7.638    -207.703
  H      -30.709       8.600    -205.783
  H      -32.918       6.753    -205.605
  H      -33.940       8.089    -207.416
  H      -33.232       9.131    -206.179
  P      -30.047       7.979    -203.311
  C      -27.545       7.276    -203.554
  O      -28.513       8.302    -203.667
  O      -30.277       7.477    -201.935
  O      -30.766       9.396    -203.522
  H      -30.847       9.852    -202.668
  H      -26.579       7.734    -203.325
  H      -27.472       6.742    -204.505
  H      -27.800       6.573    -202.755
  H      -35.112      11.897    -208.666
  H      -34.390      10.444    -209.317
  H      -33.668      12.001    -209.644

 3  4  5  6  7  8  9  10  11  12  13  23  28  29  30  31  32 0
 6-311+G(2d,p)
 ****
 33  34 0
 6-311+G(2d,p)
 ****
 1  2  14  15  16  17  18  19  20  21  22  24  25  26  27 0
 3-21G
 ****
 35  36  37  38  39  40  41  42  43  44  45 0
 3-21G
 ****


