%nproc=1
%NoSave
%Mem=1900MB
#P OB98/GEN NMR

erre ene a

0 1
  C      203.702     398.456     169.666
  O      204.065     397.732     170.846
  P      205.352     396.780     170.728
  C      204.180     394.509     171.189
  O      205.099     395.491     171.651
  C      204.207     393.273     172.096
  O      203.622     393.530     173.385
  C      203.448     392.087     171.520
  O      204.243     391.429     170.548
  C      203.201     391.241     172.763
  O      204.341     390.415     173.073
  C      202.997     392.303     173.856
  N      198.679     390.293     175.588
  C      199.860     389.672     175.219
  N      199.901     388.327     175.355
  N      200.902     390.313     174.764
  C      200.718     391.655     174.684
  C      199.608     392.385     175.052
  C      198.456     391.662     175.552
  O      197.403     392.166     175.917
  N      199.815     393.732     174.887
  C      201.002     393.800     174.304
  N      201.617     392.571     174.219
  O      206.488     397.594     171.504
  O      205.748     396.489     169.319
  H      204.105     389.803     173.791
  H      207.152     397.927     170.868
  H      197.906     389.749     175.933
  H      201.465     394.710     173.954
  H      203.507     392.025     174.786
  H      202.354     390.565     172.631
  H      199.135     387.771     175.704
  H      202.490     392.420     171.088
  H      200.760     387.857     175.094
  H      205.263     393.005     172.251
  H      204.428     394.216     170.167
  H      203.180     394.950     171.159
  P      203.499     390.514     169.460
  C      205.289     388.637     169.426
  O      204.617     389.655     168.710
  O      203.024     391.578     168.359
  O      202.339     389.743     169.992
  H      202.106     391.389     168.092
  H      205.581     387.847     168.728
  H      204.656     388.204     170.208
  H      206.189     389.057     169.885
  H      202.836     399.052     169.865
  H      203.487     397.767     168.877
  H      204.512     399.091     169.374

 3  4  5  6  7  8  9  10  11  12  23  26  30  31 0
 6-311+G(2d,p)
 ****
 33  35  36  37  38 0
 6-311+G(2d,p)
 ****
 1  2  13  14  15  16  17  18  19  20  21  22  24  25 0
 3-21G
 ****
 27  28  29  32  34  39  40  41  42  43  44  45  46  47  48  49 0
 3-21G
 ****


