%nproc=1
%NoSave
%Mem=1900MB
#P OB98/GEN NMR

erre ene a

0 1
  C     -221.325     435.923    -102.889
  O     -221.397     437.313    -103.194
  P     -220.427     437.871    -104.340
  C     -218.301     438.824    -103.135
  O     -219.568     439.070    -103.711
  C     -217.737     440.094    -102.473
  O     -217.948     441.214    -103.372
  C     -218.407     440.496    -101.163
  O     -217.542     441.397    -100.465
  C     -219.624     441.249    -101.656
  O     -220.185     442.068    -100.635
  C     -219.073     441.995    -102.893
  N     -220.069     442.167    -103.972
  C     -220.900     443.285    -103.936
  O     -220.859     444.141    -103.054
  N     -221.829     443.377    -104.936
  C     -221.978     442.507    -105.971
  O     -222.884     442.591    -106.793
  C     -220.989     441.426    -106.040
  C     -220.103     441.301    -105.051
  O     -221.424     438.593    -105.359
  O     -219.613     436.813    -105.004
  H     -220.825     442.669    -101.079
  H     -221.537     438.050    -106.161
  H     -222.482     444.147    -104.883
  H     -221.032     440.751    -106.887
  H     -219.374     440.493    -105.078
  H     -218.713     442.995    -102.621
  H     -220.396     440.537    -101.963
  H     -218.676     439.661    -100.514
  H     -216.656     439.981    -102.335
  H     -217.611     438.456    -103.898
  H     -218.386     438.030    -102.383
  P     -217.012     440.960     -99.016
  C     -218.814     442.329     -97.801
  O     -217.428     442.136     -98.010
  O     -215.588     440.522     -98.945
  O     -218.019     439.779     -98.610
  H     -217.623     439.243     -97.899
  H     -218.967     442.730     -96.795
  H     -219.370     441.392     -97.897
  H     -219.191     443.050     -98.533
  H     -222.023     435.692    -102.111
  H     -220.335     435.680    -102.564
  H     -221.563     435.353    -103.763

 3  4  5  6  7  8  9  10  11  12  13  23  28  29  30  31  32 0
 6-311+G(2d,p)
 ****
 33  34 0
 6-311+G(2d,p)
 ****
 1  2  14  15  16  17  18  19  20  21  22  24  25  26  27 0
 3-21G
 ****
 35  36  37  38  39  40  41  42  43  44  45 0
 3-21G
 ****


