%nproc=1
%NoSave
%Mem=1900MB
#P OB98/GEN NMR

erre ene a

0 1
  C       44.615      64.688    -105.408
  O       44.012      65.151    -106.627
  P       44.014      66.725    -106.954
  C       41.634      67.210    -105.979
  O       43.031      67.465    -105.925
  C       40.886      68.181    -105.061
  O       41.197      69.550    -105.410
  C       39.371      68.084    -105.147
  O       38.871      66.957    -104.446
  C       38.949      69.414    -104.533
  O       38.942      69.340    -103.099
  C       40.064      70.358    -105.026
  N       39.629      71.222    -106.119
  C       39.288      72.527    -105.778
  O       39.285      72.942    -104.621
  N       38.912      73.336    -106.816
  C       38.784      72.958    -108.124
  O       38.423      73.726    -109.006
  C       39.079      71.545    -108.408
  C       39.475      70.756    -107.409
  O       43.171      66.782    -108.318
  O       45.359      67.346    -107.140
  H       39.818      68.995    -102.833
  H       43.453      67.553    -108.843
  H       38.690      74.294    -106.596
  H       38.965      71.200    -109.427
  H       39.699      69.710    -107.603
  H       40.414      70.989    -104.200
  H       37.943      69.717    -104.843
  H       39.056      68.059    -106.197
  H       41.226      68.007    -104.031
  H       41.442      66.186    -105.649
  H       41.294      67.316    -107.013
  P       38.250      65.773    -105.338
  C       35.801      66.479    -104.756
  O       36.785      66.276    -105.747
  O       38.009      64.650    -104.222
  O       39.142      65.355    -106.457
  H       37.773      65.034    -103.360
  H       36.240      66.825    -103.817
  H       35.264      65.542    -104.584
  H       35.094      67.233    -105.114
  H       44.527      63.623    -105.348
  H       44.118      65.134    -104.572
  H       45.649      64.961    -105.395

 3  4  5  6  7  8  9  10  11  12  13  23  28  29  30  31  32 0
 6-311+G(2d,p)
 ****
 33  34 0
 6-311+G(2d,p)
 ****
 1  2  14  15  16  17  18  19  20  21  22  24  25  26 0
 3-21G
 ****
 27  35  36  37  38  39  40  41  42  43  44  45 0
 3-21G
 ****


