%nproc=1
%NoSave
%Mem=1900MB
#P OB98/GEN NMR

erre ene a

0 1
  C     -262.295    -350.480     428.731
  O     -261.524    -351.396     427.941
  P     -259.920    -351.393     427.908
  C     -259.753    -353.903     427.327
  O     -259.406    -352.575     426.948
  C     -261.196    -354.246     426.936
  O     -261.394    -354.015     425.505
  C     -261.603    -355.704     427.225
  O     -262.962    -355.667     427.680
  C     -261.494    -356.340     425.846
  O     -262.194    -357.563     425.726
  C     -262.038    -355.202     424.985
  N     -261.798    -355.324     423.554
  C     -262.276    -356.480     422.914
  O     -262.829    -357.380     423.541
  N     -262.095    -356.595     421.558
  C     -261.492    -355.661     420.889
  N     -261.359    -355.840     419.550
  C     -260.957    -354.445     421.525
  C     -261.145    -354.346     422.842
  O     -259.291    -351.416     429.264
  O     -259.509    -350.058     427.120
  H     -258.690    -349.696     427.508
  H     -261.601    -358.280     426.021
  H     -260.470    -353.685     420.937
  H     -260.805    -353.460     423.381
  H     -263.113    -355.087     425.170
  H     -260.432    -356.545     425.642
  H     -260.987    -356.187     427.992
  H     -261.865    -353.553     427.459
  H     -261.748    -356.683     419.153
  H     -259.655    -353.989     428.413
  H     -260.916    -355.170     418.938
  H     -259.056    -354.602     426.862
  P     -263.280    -355.862     429.235
  C     -264.786    -353.848     429.916
  O     -264.714    -355.205     429.524
  O     -262.291    -354.799     429.914
  O     -263.038    -357.224     429.797
  H     -262.088    -355.085     430.827
  H     -265.591    -353.362     429.353
  H     -263.857    -353.306     429.725
  H     -265.014    -353.796     430.982
  H     -263.337    -350.676     428.589
  H     -262.076    -349.477     428.429
  H     -262.047    -350.604     429.764

 3  4  5  6  7  8  9  10  11  12  13  24  27  28  29  30  32 0
 6-311+G(2d,p)
 ****
 34  35 0
 6-311+G(2d,p)
 ****
 1  2  14  15  16  17  18  19  20  21  22  23  25  26 0
 3-21G
 ****
 31  33  36  37  38  39  40  41  42  43  44  45  46 0
 3-21G
 ****


