%nproc=1
%NoSave
%Mem=1900MB
#P OB98/GEN NMR

erre ene a

0 1
  C      -49.608    -575.557    -230.858
  O      -48.622    -574.600    -230.534
  H      -49.768    -576.199    -229.986
  H      -49.266    -576.176    -231.689
  H      -50.554    -575.080    -231.117
  P      -48.396    -573.355    -231.519
  C      -49.995    -571.764    -230.267
  O      -48.654    -572.034    -230.645
  C      -50.167    -570.293    -229.873
  O      -51.588    -569.991    -229.797
  C      -49.547    -569.939    -228.514
  O      -49.126    -568.571    -228.579
  C      -50.741    -570.077    -227.583
  O      -50.522    -569.423    -226.356
  C      -51.854    -569.505    -228.468
  N      -53.191    -569.881    -227.996
  C      -53.716    -569.121    -226.960
  O      -53.105    -568.196    -226.418
  N      -54.960    -569.488    -226.523
  C      -55.682    -570.553    -226.972
  O      -56.783    -570.853    -226.524
  C      -55.054    -571.346    -228.037
  C      -53.857    -570.982    -228.496
  O      -49.148    -573.405    -232.809
  O      -46.812    -573.313    -231.750
  H      -51.346    -569.416    -225.817
  H      -46.613    -572.958    -232.636
  H      -55.365    -568.939    -225.777
  H      -55.596    -572.209    -228.409
  H      -53.364    -571.545    -229.286
  H      -51.799    -568.409    -228.491
  H      -50.936    -571.133    -227.360
  H      -48.711    -570.583    -228.235
  H      -49.750    -569.665    -230.667
  H      -50.243    -572.409    -229.414
  H      -50.662    -572.007    -231.101
  P      -47.594    -568.139    -228.383
  C      -46.467    -567.925    -230.692
  O      -47.144    -567.243    -229.642
  O      -46.669    -569.276    -228.079
  O      -47.610    -567.089    -227.170
  H      -46.757    -567.110    -226.704
  H      -46.220    -567.230    -231.467
  H      -47.102    -568.690    -231.088
  H      -45.570    -568.367    -230.310

 6  7  8  9  10  11  12  13  14  15  16  26  31  32  33  34  35 0
 6-311+G(2d,p)
 ****
 36  37 0
 6-311+G(2d,p)
 ****
 1  2  3  4  5  17  18  19  20  21  22  23  24  25 0
 3-21G
 ****
 27  28  29  30  38  39  40  41  42  43  44  45 0
 3-21G
 ****


