%nproc=1
%NoSave
%Mem=1900MB
#P OB98/GEN NMR

erre ene a

0 1
  C     -370.557    -497.776    -897.400
  O     -370.235    -496.406    -897.270
  H     -371.526    -497.904    -897.880
  H     -369.793    -498.267    -898.010
  H     -370.566    -498.260    -896.410
  P     -371.233    -495.508    -896.400
  C     -373.709    -494.773    -896.630
  O     -372.644    -495.529    -897.160
  C     -374.716    -494.454    -897.730
  O     -375.566    -495.612    -898.000
  C     -375.682    -493.312    -897.390
  O     -375.102    -492.042    -897.600
  C     -376.810    -493.592    -898.390
  O     -376.392    -493.137    -899.710
  C     -376.869    -495.121    -898.370
  N     -380.631    -498.532    -897.620
  C     -379.866    -498.248    -898.700
  N     -378.881    -497.343    -898.830
  C     -378.741    -496.640    -897.670
  C     -379.454    -496.822    -896.480
  C     -380.434    -497.822    -896.490
  N     -381.223    -498.098    -895.400
  N     -379.036    -495.913    -895.540
  C     -378.056    -495.238    -896.120
  N     -377.846    -495.628    -897.410
  O     -370.713    -494.015    -896.650
  O     -371.304    -495.850    -894.940
  H     -375.695    -493.758    -900.000
  H     -371.020    -493.426    -895.940
  H     -380.052    -498.866    -899.590
  H     -377.489    -494.445    -895.650
  H     -377.125    -495.536    -899.360
  H     -377.724    -493.083    -898.160
  H     -376.085    -493.424    -896.370
  H     -374.160    -494.218    -898.660
  H     -373.331    -493.841    -896.220
  H     -382.028    -498.690    -895.560
  H     -381.180    -497.471    -894.600
  H     -374.203    -495.345    -895.820
  P     -375.881    -490.783    -896.990
  C     -378.167    -489.657    -897.580
  O     -377.031    -490.424    -898.050
  O     -374.828    -489.576    -897.160
  O     -376.323    -490.937    -895.560
  H     -374.956    -488.880    -896.500
  H     -378.847    -489.494    -898.390
  H     -377.829    -488.714    -897.203
  H     -378.663    -490.196    -896.800

 6  7  8  9  10  11  12  13  14  15  25  28  32  33  34  35 0
 6-311+G(2d,p)
 ****
 36  39  40 0
 6-311+G(2d,p)
 ****
 1  2  3  4  5  16  17  18  19  20  21  22  23  24 0
 3-21G
 ****
 26  27  29  30  31  37  38  41  42  43  44  45  46  47 0
 3-21G
 ****
 48 0
 3-21G
 ****


