%nproc=1
%NoSave
%Mem=1900MB
#P OB98/GEN NMR

erre ene a

0 1
  C     -337.828     226.719     325.038
  O     -339.233     226.889     324.827
  P     -340.010     228.036     325.630
  C     -341.983     228.194     323.975
  O     -341.581     227.933     325.313
  C     -343.265     227.430     323.621
  O     -342.973     226.006     323.467
  C     -344.363     227.558     324.697
  O     -345.631     227.950     324.160
  C     -344.333     226.217     325.410
  O     -345.553     225.908     326.059
  C     -343.871     225.256     324.301
  N     -343.250     224.038     324.849
  C     -344.086     223.152     325.505
  O     -345.280     223.373     325.719
  N     -343.497     222.017     325.984
  C     -342.162     221.724     325.934
  O     -341.673     220.717     326.425
  C     -341.311     222.739     325.281
  C     -341.892     223.830     324.773
  O     -339.439     229.414     325.517
  O     -339.935     227.524     327.156
  H     -346.252     225.793     325.377
  H     -339.801     228.303     327.728
  H     -344.093     221.346     326.454
  H     -340.246     222.551     325.246
  H     -341.290     224.593     324.294
  H     -344.717     224.930     323.691
  H     -343.557     226.254     326.184
  H     -344.122     228.358     325.413
  H     -343.628     227.805     322.661
  H     -341.192     227.888     323.285
  H     -342.109     229.268     323.838
  P     -346.465     229.221     324.636
  C     -347.025     230.131     322.275
  O     -347.515     229.600     323.494
  O     -345.656     230.378     325.156
  O     -347.388     228.634     325.797
  H     -347.442     229.277     326.532
  H     -347.824     230.669     321.770
  H     -346.689     229.308     321.628
  H     -346.181     230.825     322.444
  H     -337.470     225.916     324.428
  H     -337.647     226.493     326.068
  H     -337.316     227.621     324.776

 3  4  5  6  7  8  9  10  11  12  13  23  28  29  30  31  32 0
 6-311+G(2d,p)
 ****
 33  34 0
 6-311+G(2d,p)
 ****
 1  2  14  15  16  17  18  19  20  21  22  24  25  26  27 0
 3-21G
 ****
 35  36  37  38  39  40  41  42  43  44  45 0
 3-21G
 ****


