%nproc=1
%NoSave
%Mem=1900MB
#P OB98/GEN NMR

erre ene a

0 1
  C     -279.557     -23.915      56.664
  O     -278.410     -24.239      57.426
  H     -279.562     -22.838      56.480
  H     -280.462     -24.186      57.214
  H     -279.534     -24.439      55.705
  P     -278.210     -25.789      57.790
  C     -276.063     -25.930      56.318
  O     -277.368     -26.423      56.580
  C     -275.565     -26.434      54.957
  O     -276.656     -26.329      53.993
  C     -274.391     -25.624      54.386
  O     -273.612     -26.503      53.555
  C     -275.110     -24.607      53.515
  O     -274.213     -23.965      52.639
  C     -276.177     -25.510      52.903
  N     -277.966     -23.456      48.575
  C     -276.852     -24.177      48.837
  N     -276.451     -24.700      50.010
  C     -277.342     -24.435      50.981
  C     -278.524     -23.721      50.866
  C     -278.827     -23.212      49.590
  N     -279.953     -22.469      49.323
  N     -279.175     -23.653      52.084
  C     -278.400     -24.316      52.918
  N     -277.279     -24.798      52.298
  O     -279.674     -26.403      57.599
  O     -277.662     -26.064      59.149
  H     -274.669     -23.266      52.123
  H     -280.138     -26.431      58.457
  H     -276.199     -24.354      47.987
  H     -278.592     -24.468      53.974
  H     -275.758     -26.180      52.143
  H     -275.567     -23.824      54.128
  H     -273.750     -25.186      55.155
  H     -275.317     -27.498      55.039
  H     -275.394     -26.282      57.110
  H     -276.080     -24.836      56.317
  H     -280.091     -22.127      48.387
  H     -280.597     -22.265      50.075
  P     -272.367     -27.292      54.202
  C     -273.274     -29.717      53.831
  O     -272.884     -28.708      54.750
  O     -272.130     -26.476      55.565
  O     -271.121     -27.320      53.378
  H     -271.191     -26.543      55.825
  H     -273.588     -30.587      54.369
  H     -272.445     -29.967      53.202
  H     -274.083     -29.358      53.229

 6  7  8  9  10  11  12  13  14  15  25  28  32  33  34  35 0
 6-311+G(2d,p)
 ****
 36  37  40 0
 6-311+G(2d,p)
 ****
 1  2  3  4  5  16  17  18  19  20  21  22  23  24 0
 3-21G
 ****
 26  27  29  30  31  38  39 41  42  43  44  45  46  47  48 0
 3-21G
 ****


