%nproc=1
%NoSave
%Mem=1900MB
#P OB98/GEN NMR

erre ene a

0 1
  C      -23.584     -55.169      73.458
  O      -23.311     -53.924      72.844
  H      -24.114     -55.016      74.402
  H      -24.216     -55.758      72.790
  H      -22.652     -55.715      73.636
  P      -22.365     -52.916      73.658
  C      -24.414     -51.905      74.889
  O      -23.156     -52.551      75.007
  C      -24.901     -51.450      76.262
  O      -25.223     -52.593      77.080
  C      -23.883     -50.645      77.065
  O      -23.837     -49.289      76.648
  C      -24.460     -50.777      78.466
  O      -25.557     -49.858      78.629
  C      -24.982     -52.223      78.463
  N      -24.530     -56.366      81.431
  C      -25.609     -55.699      80.973
  N      -25.652     -54.616      80.169
  C      -24.410     -54.238      79.821
  C      -23.214     -54.830      80.189
  C      -23.300     -55.944      81.041
  N      -22.181     -56.578      81.560
  N      -22.143     -54.148      79.646
  C      -22.685     -53.152      78.977
  N      -24.051     -53.168      79.048
  O      -22.451     -51.570      72.790
  O      -20.955     -53.371      73.836
  H      -25.819     -49.897      79.568
  H      -21.677     -51.522      72.197
  H      -26.572     -56.083      81.297
  H      -22.130     -52.398      78.436
  H      -25.935     -52.319      78.994
  H      -23.733     -50.556      79.253
  H      -22.891     -51.110      77.041
  H      -25.825     -50.876      76.118
  H      -25.143     -52.600      74.460
  H      -22.343     -57.010      82.465
  H      -21.318     -56.059      81.449
  H      -24.305     -51.045      74.221
  P      -22.440     -48.512      76.794
  C      -23.276     -47.179      78.847
  O      -22.312     -48.091      78.339
  O      -22.726     -47.125      76.045
  O      -21.259     -49.207      76.211
  H      -22.065     -46.991      75.339
  H      -23.075     -46.986      79.880
  H      -24.254     -47.601      78.747
  H      -23.225     -46.263      78.297

 6  7  8  9  10  11  12  13  14  15  25  28  32  33  34  35 0
 6-311+G(2d,p)
 ****
 36  39  40 0
 6-311+G(2d,p)
 ****
 1  2  3  4  5  16  17  18  19  20  21  22  23  24 0
 3-21G
 ****
 26  27  29  30  31  37  38  41  42  43  44  45  46  47  48 0
 3-21G
 ****


