%nproc=1
%NoSave
%Mem=1900MB
#P OB98/GEN NMR

erre ene a

0 1
  C       40.261     -28.532      11.546
  O       39.073     -27.825      11.837
  H       40.564     -29.091      12.435
  H       41.058     -27.830      11.287
  H       40.108     -29.238      10.725
  P       38.266     -27.139      10.635
  C       39.735     -25.032      10.867
  O       39.243     -26.039       9.995
  C       39.637     -23.652      10.210
  O       40.707     -23.531       9.222
  C       38.304     -23.400       9.473
  O       38.019     -21.999       9.575
  C       38.681     -23.779       8.053
  O       37.728     -23.336       7.123
  C       40.079     -23.160       7.978
  N       40.858     -23.613       6.833
  C       40.407     -23.247       5.569
  O       39.414     -22.551       5.369
  N       41.143     -23.723       4.515
  C       42.251     -24.512       4.602
  O       42.885     -24.892       3.625
  C       42.661     -24.890       5.965
  C       41.957     -24.430       7.001
  O       36.897     -26.649      10.969
  O       38.225     -28.278       9.509
  H       37.370     -28.745       9.548
  H       37.736     -22.357       7.062
  H       40.831     -23.466       3.590
  H       43.523     -25.534       6.067
  H       42.228     -24.690       8.019
  H       40.019     -22.067       7.962
  H       38.734     -24.867       7.953
  H       37.473     -23.976       9.888
  H       39.819     -22.883      10.970
  H       40.780     -25.259      11.098
  H       39.154     -25.044      11.795
  P       36.998     -21.384      10.652
  C       34.919     -21.998       9.254
  O       35.574     -22.112      10.510
  O       36.908     -19.893      10.606
  O       37.537     -21.871      12.078
  H       37.383     -21.167      12.737
  H       33.987     -22.523       9.289
  H       35.537     -22.420       8.490
  H       34.739     -20.966       9.038

 6  7  8  9  10  11  12  13  14  15  16  27  31  32  33  34  35 0
 6-311+G(2d,p)
 ****
 36  37 0
 6-311+G(2d,p)
 ****
 1  2  3  4  5  17  18  19  20  21  22  23  24  25 0
 3-21G
 ****
 26  28  29  30  38  39  40  41  42  43  44  45 0
 3-21G
 ****


