%nproc=1
%NoSave
%Mem=1900MB
#P OB98/GEN NMR

erre ene a

0 1
  C     -419.695     328.633      49.582
  O     -419.555     329.918      50.179
  P     -418.269     330.800      49.811
  C     -418.964     331.371      47.320
  O     -418.621     331.803      48.618
  C     -419.282     332.596      46.447
  O     -420.274     333.424      47.087
  C     -418.066     333.480      46.182
  O     -417.319     333.035      45.064
  C     -418.704     334.839      45.987
  O     -419.274     334.941      44.667
  C     -419.821     334.805      47.057
  N     -419.474     335.218      48.436
  C     -418.911     336.473      48.663
  O     -418.661     337.291      47.781
  N     -418.639     336.782      49.973
  C     -419.021     336.060      51.065
  O     -418.802     336.414      52.217
  C     -419.743     334.820      50.778
  C     -419.925     334.455      49.506
  O     -417.267     329.750      49.143
  O     -417.647     331.503      50.978
  H     -419.726     335.801      44.616
  H     -416.465     329.650      49.690
  H     -418.164     337.653      50.149
  H     -420.107     334.238      51.618
  H     -420.460     333.536      49.280
  H     -420.671     335.428      46.746
  H     -417.966     335.637      46.059
  H     -417.433     333.530      47.077
  H     -419.695     332.242      45.491
  H     -419.825     330.700      47.349
  H     -418.132     330.803      46.890
  P     -415.803     332.555      45.253
  C     -415.200     330.608      46.814
  O     -415.895     330.997      45.644
  O     -414.953     333.396      46.144
  O     -415.238     332.499      43.752
  H     -414.754     333.329      43.534
  H     -415.471     329.575      47.054
  H     -415.478     331.252      47.654
  H     -414.121     330.659      46.642
  H     -420.599     328.176      49.928
  H     -418.860     328.021      49.852
  H     -419.732     328.736      48.518

 3  4  5  6  7  8  9  10  11  12  13  23  28  29  30  31  32 0
 6-311+G(2d,p)
 ****
 33  34 0
 6-311+G(2d,p)
 ****
 1  2  14  15  16  17  18  19  20  21  22  24  25  26  27 0
 3-21G
 ****
 35  36  37  38  39  40  41  42  43  44  45 0
 3-21G
 ****


