%nproc=1
%NoSave
%Mem=1900MB
#P OB98/GEN NMR

erre ene a

0 1
  C      218.148      14.510     383.727
  O      217.210      14.910     382.746
  P      216.988      16.494     382.556
  C      216.272      18.441     384.143
  O      216.530      17.056     383.989
  C      215.303      18.655     385.306
  O      215.829      18.079     386.515
  C      215.015      20.117     385.622
  O      214.031      20.636     384.738
  C      214.559      20.034     387.073
  O      213.172      19.636     387.151
  C      215.474      18.938     387.635
  N      217.536      20.290     392.047
  C      216.226      19.982     391.737
  N      215.349      19.992     392.764
  N      215.814      19.682     390.532
  C      216.797      19.730     389.606
  C      218.127      20.037     389.787
  C      218.578      20.311     391.130
  O      219.744      20.498     391.476
  N      218.818      20.001     388.600
  C      217.914      19.637     387.713
  N      216.677      19.439     388.275
  O      215.660      16.568     381.667
  O      218.139      17.229     381.944
  H      212.622      20.287     386.684
  H      215.885      16.706     380.726
  H      217.800      20.497     392.997
  H      218.106      19.488     386.665
  H      214.959      18.305     388.375
  H      214.635      20.996     387.588
  H      215.585      20.232     393.713
  H      215.936      20.710     385.565
  H      214.379      19.765     392.557
  H      214.368      18.123     385.070
  H      215.824      18.834     383.223
  H      217.217      18.965     384.327
  P      213.976      22.226     384.551
  C      213.264      24.242     386.028
  O      213.274      22.834     385.856
  O      212.876      22.419     383.396
  O      215.274      22.855     384.167
  H      213.129      23.168     382.823
  H      212.367      24.519     386.593
  H      213.257      24.767     385.068
  H      214.151      24.536     386.590
  H      218.202      13.442     383.754
  H      217.841      14.876     384.684
  H      219.110      14.910     383.484

 3  4  5  6  7  8  9  10  11  12  23  26  30  31 0
 6-311+G(2d,p)
 ****
 33  35  36  37  38 0
 6-311+G(2d,p)
 ****
 1  2  13  14  15  16  17  18  19  20  21  22  24  25 0
 3-21G
 ****
 27  28  29  32  34  39  40  41  42  43  44  45  46  47  48  49 0
 3-21G
 ****


