%nproc=1
%NoSave
%Mem=1900MB
#P OB98/GEN NMR

erre ene a

0 1
  C      257.122      -8.037     400.556
  O      257.141      -6.969     401.481
  P      255.898      -5.963     401.562
  C      257.531      -3.992     401.294
  O      256.454      -4.539     402.051
  C      257.847      -2.574     401.768
  O      256.774      -1.675     401.417
  C      258.008      -2.445     403.281
  O      259.267      -2.946     403.693
  C      257.821      -0.948     403.473
  O      259.043      -0.245     403.187
  C      256.756      -0.625     402.414
  N      253.348       2.638     404.352
  C      254.648       2.784     404.022
  N      255.505       1.854     403.547
  C      254.892       0.662     403.446
  C      253.583       0.352     403.777
  C      252.780       1.414     404.234
  N      251.435       1.290     404.515
  N      253.337      -0.994     403.562
  C      254.476      -1.481     403.121
  N      255.424      -0.507     402.968
  O      254.713      -6.469     402.309
  O      255.527      -5.696     400.028
  H      258.888       0.694     403.396
  H      254.611      -5.988     399.863
  H      255.056       3.787     404.146
  H      254.659      -2.520     402.880
  H      256.974       0.310     401.889
  H      257.528      -0.690     404.491
  H      257.195      -2.980     403.789
  H      258.755      -2.235     401.253
  H      257.232      -3.972     400.241
  H      250.927       2.143     404.689
  H      250.942       0.484     404.144
  H      258.413      -4.632     401.401
  P      259.353      -4.350     404.458
  C      261.241      -3.396     405.910
  O      260.831      -4.459     405.073
  O      258.898      -5.538     403.680
  O      258.447      -4.125     405.763
  H      258.027      -4.971     406.012
  H      261.521      -2.534     405.300
  H      262.107      -3.721     406.489
  H      260.441      -3.112     406.598
  H      258.028      -8.600     400.642
  H      257.038      -7.647     399.563
  H      256.286      -8.672     400.762

 3  4  5  6  7  8  9  10  11  12  22  25  29  30  31  32 0
 6-311+G(2d,p)
 ****
 33  36  37 0
 6-311+G(2d,p)
 ****
 1  2  13  14  15  16  17  18  19  20  21  23  24  26 0
 3-21G
 ****
 27  28  34  35  38  39  40  41  42  43  44  45  46  47  48 0
 3-21G
 ****


