%nproc=1
%NoSave
%Mem=1900MB
#P OB98/GEN NMR

erre ene a

0 1
  C       70.721     169.490    -482.028
  O       69.579     169.169    -482.803
  P       68.935     167.700    -482.749
  C       68.964     165.773    -484.421
  O       69.733     166.783    -483.794
  C       69.820     164.940    -485.384
  O       70.138     165.746    -486.562
  C       71.159     164.456    -484.793
  O       71.425     163.178    -485.382
  C       72.148     165.479    -485.326
  O       73.497     165.006    -485.316
  C       71.573     165.726    -486.715
  N       75.509     168.187    -488.858
  C       75.406     166.951    -488.333
  N       74.325     166.372    -487.753
  C       73.285     167.218    -487.756
  C       73.247     168.519    -488.222
  C       74.431     169.007    -488.821
  N       74.550     170.259    -489.384
  N       72.006     169.087    -487.985
  C       71.316     168.142    -487.399
  N       72.016     166.971    -487.292
  O       67.451     167.659    -482.885
  O       69.402     167.131    -481.327
  H       73.727     164.749    -484.401
  H       68.650     167.128    -480.697
  H       76.301     166.338    -488.389
  H       70.299     168.245    -487.017
  H       71.825     164.914    -487.416
  H       72.110     166.387    -484.716
  H       71.164     164.392    -483.705
  H       69.225     164.090    -485.730
  H       68.166     166.267    -484.990
  H       75.392     170.451    -489.890
  H       73.699     170.777    -489.600
  H       68.511     165.125    -483.668
  P       71.886     161.950    -484.451
  C       74.117     161.144    -483.498
  O       73.481     161.940    -484.479
  O       71.235     160.644    -484.742
  O       71.554     162.465    -482.969
  H       71.536     161.699    -482.359
  H       74.141     161.676    -482.549
  H       75.145     160.921    -483.813
  H       73.586     160.187    -483.350
  H       70.995     170.510    -482.202
  H       71.532     168.850    -482.307
  H       70.498     169.352    -480.991

 3  4  5  6  7  8  9  10  11  12  22  25  29  30  31  32 0
 6-311+G(2d,p)
 ****
 33  36  37 0
 6-311+G(2d,p)
 ****
 1  2  13  14  15  16  17  18  19  20  21  23  24  26 0
 3-21G
 ****
 27  28  34  35  38  39  40  41  42  43  44  45  46  47  48 0
 3-21G
 ****


