%nproc=1
%NoSave
%Mem=1900MB
#P OB98/GEN NMR

erre ene a

0 1
  C      866.601     983.901     156.062
  O      865.946     983.165     155.051
  H      865.872     984.137     156.850
  H      866.983     984.841     155.650
  H      867.414     983.337     156.513
  P      866.831     982.443     153.934
  C      864.641     982.518     152.569
  O      865.794     981.769     152.904
  C      863.514     981.604     152.065
  O      863.848     981.141     150.722
  C      863.283     980.371     152.936
  O      861.894     980.021     152.856
  C      864.121     979.324     152.227
  O      863.765     978.010     152.602
  C      863.859     979.699     150.765
  N      864.857     979.131     149.848
  C      864.882     977.741     149.753
  O      864.159     976.994     150.409
  N      865.825     977.227     148.905
  C      866.761     977.934     148.204
  O      867.599     977.416     147.482
  C      866.704     979.400     148.381
  C      865.774     979.919     149.182
  O      867.899     981.527     154.436
  O      867.446     983.643     153.069
  H      864.200     977.355     152.015
  H      868.314     983.388     152.700
  H      865.862     976.222     148.809
  H      867.441     979.999     147.854
  H      865.707     980.995     149.332
  H      862.876     979.343     150.440
  H      865.183     979.450     152.466
  H      863.575     980.510     153.982
  H      862.593     982.196     151.971
  H      864.919     983.236     151.777
  H      864.301     983.080     153.444
  P      860.777     980.724     153.762
  C      859.250     978.657     153.549
  O      859.354     980.077     153.425
  O      860.799     982.221     153.724
  O      861.076     980.192     155.260
  H      860.781     980.845     155.899
  H      858.256     978.349     153.298
  H      859.469     978.370     154.556
  H      859.947     978.189     152.885

 6  7  8  9  10  11  12  13  14  15  16  26  31  32  33  34  35 0
 6-311+G(2d,p)
 ****
 36  37 0
 6-311+G(2d,p)
 ****
 1  2  3  4  5  17  18  19  20  21  22  23  24  25 0
 3-21G
 ****
 27  28  29  30  38  39  40  41  42  43  44  45 0
 3-21G
 ****


