%nproc=1
%NoSave
%Mem=1900MB
#P OB98/GEN NMR

erre ene a

0 1
  C       82.483      -9.958      27.255
  O       82.310      -8.748      28.005
  P       81.362      -8.637      29.296
  C       79.645      -6.808      28.657
  O       80.822      -7.127      29.390
  C       79.231      -5.354      28.900
  O       80.081      -4.457      28.144
  C       77.822      -4.995      28.452
  O       76.831      -5.525      29.313
  C       77.893      -3.469      28.438
  O       77.654      -2.923      29.744
  C       79.354      -3.213      28.020
  N       79.473      -2.669      26.677
  C       78.951      -1.388      26.471
  O       78.353      -0.806      27.375
  N       79.110      -0.808      25.237
  C       79.643      -1.485      24.268
  N       79.790      -0.851      23.074
  C       80.080      -2.887      24.409
  C       79.970      -3.409      25.628
  O       81.997      -9.127      30.557
  O       80.057      -9.491      28.938
  H       79.645      -9.817      29.759
  H       77.859      -1.968      29.691
  H       80.480      -3.429      23.565
  H       80.282      -4.431      25.824
  H       79.833      -2.527      28.729
  H       77.152      -3.029      27.764
  H       77.663      -5.361      27.430
  H       79.360      -5.137      29.969
  H       79.489       0.113      23.014
  H       78.837      -7.466      28.995
  H       80.213      -1.280      22.263
  H       79.822      -6.993      27.593
  P       75.834      -6.615      28.688
  C       73.665      -5.737      29.814
  O       74.605      -6.788      29.702
  O       76.643      -7.991      28.828
  O       75.445      -6.356      27.269
  H       76.494      -8.540      28.037
  H       72.703      -6.160      30.116
  H       73.537      -5.207      28.866
  H       73.999      -5.036      30.581
  H       83.159      -9.782      26.445
  H       81.538     -10.276      26.868
  H       82.881     -10.719      27.893

 3  4  5  6  7  8  9  10  11  12  13  24  27  28  29  30  32 0
 6-311+G(2d,p)
 ****
 34  35 0
 6-311+G(2d,p)
 ****
 1  2  14  15  16  17  18  19  20  21  22  23  25  26 0
 3-21G
 ****
 31  33  36  37  38  39  40  41  42  43  44  45  46 0
 3-21G
 ****


