%nproc=1
%NoSave
%Mem=1900MB
#P OB98/GEN NMR

erre ene a

0 1
  C     -144.709     -72.313     -91.578
  O     -144.302     -71.739     -92.802
  H     -145.218     -71.547     -90.986
  H     -143.840     -72.666     -91.018
  H     -145.403     -73.140     -91.748
  P     -143.647     -72.684     -93.920
  C     -145.643     -72.296     -95.504
  O     -144.852     -73.253     -94.811
  C     -145.345     -72.362     -97.001
  O     -145.744     -73.642     -97.534
  C     -146.093     -71.316     -97.823
  O     -145.507     -70.040     -97.668
  C     -145.976     -71.923     -99.214
  O     -144.683     -71.665     -99.782
  C     -146.144     -73.431     -98.909
  N     -147.508     -73.910     -99.141
  C     -147.821     -74.255    -100.452
  O     -147.022     -74.171    -101.384
  N     -149.111     -74.663    -100.668
  C     -150.113     -74.668     -99.740
  O     -151.296     -74.826    -100.022
  C     -149.705     -74.365     -98.360
  C     -148.444     -73.989     -98.129
  O     -142.690     -73.713     -93.419
  O     -142.929     -71.650     -94.912
  H     -141.971     -71.632     -94.721
  H     -144.027     -72.029     -99.154
  H     -149.362     -74.871    -101.624
  H     -150.457     -74.419     -97.581
  H     -148.128     -73.733     -97.124
  H     -145.463     -74.026     -99.532
  H     -146.717     -71.521     -99.906
  H     -147.151     -71.298     -97.534
  H     -144.261     -72.260     -97.139
  H     -145.390     -71.298     -95.125
  H     -146.701     -72.494     -95.307
  P     -146.333     -68.704     -97.981
  C     -146.345     -67.908     -95.544
  O     -147.139     -68.301     -96.656
  O     -147.160     -68.750     -99.223
  O     -145.212     -67.564     -98.082
  H     -145.318     -67.086     -98.930
  H     -146.982     -67.662     -94.720
  H     -145.759     -67.053     -95.809
  H     -145.697     -68.713     -95.266

 6  7  8  9  10  11  12  13  14  15  16  27  31  32  33  34  35 0
 6-311+G(2d,p)
 ****
 36  37 0
 6-311+G(2d,p)
 ****
 1  2  3  4  5  17  18  19  20  21  22  23  24  25 0
 3-21G
 ****
 26  28  29  30  38  39  40  41  42  43  44  45 0
 3-21G
 ****


