%nproc=1
%NoSave
%Mem=1900MB
#P OB98/GEN NMR

erre ene a

0 1
  C      110.178      40.545      47.415
  O      110.994      41.590      47.910
  P      110.736      42.246      49.347
  C      109.238      44.129      50.260
  O      109.630      43.389      49.114
  C      107.951      44.916      50.005
  O      106.914      44.010      49.529
  C      107.393      45.652      51.231
  O      106.785      46.852      50.742
  C      106.332      44.686      51.738
  O      105.383      45.310      52.592
  C      105.777      44.147      50.408
  N      105.061      42.890      50.586
  C      103.751      42.976      51.071
  O      103.283      44.070      51.402
  N      103.022      41.825      51.228
  C      103.592      40.675      51.012
  N      102.821      39.566      51.178
  C      105.006      40.534      50.623
  C      105.671      41.671      50.417
  O      111.962      42.697      50.069
  O      109.910      41.124      50.134
  H      104.729      44.635      52.873
  H      110.516      40.402      50.443
  H      105.453      39.557      50.512
  H      106.713      41.668      50.124
  H      105.093      44.880      49.949
  H      106.809      43.878      52.302
  H      108.148      45.877      51.987
  H      108.148      45.636      49.197
  H      101.851      39.712      51.430
  H      110.037      44.836      50.496
  H      103.143      38.634      50.962
  H      109.120      43.460      51.116
  P      107.232      48.291      51.285
  C      107.030      49.469      53.553
  O      106.446      48.539      52.659
  O      107.124      49.406      50.292
  O      108.747      48.084      51.767
  H      109.178      48.955      51.875
  H      106.285      49.765      54.298
  H      107.372      50.361      53.020
  H      107.880      49.001      54.061
  H      110.521      40.254      46.444
  H      109.165      40.884      47.349
  H      110.231      39.707      48.078

 3  4  5  6  7  8  9  10  11  12  13  23  27  28  29  30  32 0
 6-311+G(2d,p)
 ****
 34  35 0
 6-311+G(2d,p)
 ****
 1  2  14  15  16  17  18  19  20  21  22  24  25  26 0
 3-21G
 ****
 31  33  36  37  38  39  40  41  42  43  44  45  46 0
 3-21G
 ****


