%nproc=1
%NoSave
%Mem=1900MB
#P OB98/GEN NMR

erre ene a

0 1
  C     -250.651    -142.839     -32.863
  O     -250.189    -142.625     -34.181
  H     -251.544    -142.229     -32.698
  H     -249.887    -142.546     -32.141
  H     -250.914    -143.892     -32.722
  P     -248.845    -143.388     -34.611
  C     -250.210    -145.380     -35.566
  O     -249.201    -144.951     -34.663
  C     -249.602    -146.320     -36.604
  O     -248.998    -147.456     -35.943
  C     -250.615    -146.909     -37.578
  O     -250.978    -145.994     -38.594
  C     -249.842    -148.105     -38.108
  O     -248.961    -147.730     -39.177
  C     -249.043    -148.562     -36.867
  N     -249.609    -149.760     -36.260
  C     -248.861    -150.927     -36.408
  O     -247.790    -150.967     -37.009
  N     -249.409    -152.061     -35.870
  C     -250.619    -152.149     -35.249
  O     -251.085    -153.211     -34.855
  C     -251.360    -150.881     -35.107
  C     -250.835    -149.764     -35.619
  O     -247.920    -143.250     -33.313
  O     -248.179    -142.855     -35.837
  H     -247.246    -142.559     -33.454
  H     -248.824    -148.537     -39.713
  H     -248.889    -152.914     -35.979
  H     -252.325    -150.915     -34.613
  H     -251.373    -148.826     -35.546
  H     -248.003    -148.783     -37.143
  H     -250.510    -148.872     -38.500
  H     -251.497    -147.271     -37.034
  H     -248.816    -145.777     -37.146
  H     -250.637    -144.511     -36.079
  H     -251.005    -145.881     -35.002
  P     -252.430    -146.129     -39.263
  C     -253.365    -143.991     -38.050
  O     -253.456    -145.383     -38.278
  O     -252.730    -147.682     -39.040
  O     -252.485    -145.669     -40.679
  H     -252.378    -148.022     -38.199
  H     -254.133    -143.690     -37.368
  H     -253.486    -143.469     -38.976
  H     -252.407    -143.760     -37.633

 6  7  8  9  10  11  12  13  14  15  16  27  31  32  33  34  35 0
 6-311+G(2d,p)
 ****
 36  37 0
 6-311+G(2d,p)
 ****
 1  2  3  4  5  17  18  19  20  21  22  23  24  25 0
 3-21G
 ****
 26  28  29  30  38  39  40  41  42  43  44  45 0
 3-21G
 ****


