%nproc=1
%NoSave
%Mem=1900MB
#P OB98/GEN NMR

erre ene a

0 1
  C     -185.268    -495.372      12.947
  O     -185.038    -494.094      13.518
  P     -183.520    -493.574      13.550
  C     -181.424    -494.189      14.981
  O     -182.829    -494.278      14.810
  C     -181.017    -494.907      16.272
  O     -181.366    -496.306      16.193
  C     -179.521    -494.856      16.565
  O     -179.184    -493.624      17.171
  C     -179.352    -496.064      17.482
  O     -179.745    -495.740      18.833
  C     -180.323    -497.079      16.855
  N     -177.450    -501.215      16.379
  C     -177.757    -500.471      17.496
  N     -177.256    -500.918      18.673
  N     -178.485    -499.380      17.476
  C     -178.907    -499.046      16.232
  C     -178.663    -499.688      15.046
  C     -177.897    -500.919      15.091
  O     -177.688    -501.670      14.141
  N     -179.235    -499.037      13.984
  C     -179.859    -498.017      14.543
  N     -179.700    -497.983      15.905
  O     -183.671    -492.042      13.987
  O     -182.769    -493.732      12.265
  H     -179.288    -494.920      19.102
  H     -183.630    -491.457      13.209
  H     -176.903    -502.050      16.455
  H     -180.442    -497.286      14.007
  H     -180.810    -497.698      17.615
  H     -178.316    -496.404      17.527
  H     -176.664    -501.728      18.765
  H     -178.945    -495.008      15.644
  H     -177.461    -500.374      19.503
  H     -181.588    -494.465      17.093
  H     -181.137    -493.141      15.047
  H     -180.927    -494.641      14.110
  P     -177.623    -493.261      17.286
  C     -175.565    -494.487      18.281
  O     -176.967    -494.306      18.306
  O     -177.626    -491.880      18.099
  O     -176.924    -493.118      15.978
  H     -176.909    -491.307      17.770
  H     -175.235    -494.764      19.289
  H     -175.036    -493.572      17.974
  H     -175.312    -495.293      17.592
  H     -186.313    -495.598      12.987
  H     -184.722    -496.111      13.495
  H     -184.942    -495.371      11.928

 3  4  5  6  7  8  9  10  11  12  23  26  30  31 0
 6-311+G(2d,p)
 ****
 33  35  36  37  38 0
 6-311+G(2d,p)
 ****
 1  2  13  14  15  16  17  18  19  20  21  22  24  25 0
 3-21G
 ****
 27  28  29  32  34  39  40  41  42  43  44  45  46  47  48  49 0
 3-21G
 ****


