%nproc=1
%NoSave
%Mem=1900MB
#P OB98/GEN NMR

erre ene a

0 1
  C      693.724    -109.429    -711.304
  O      694.270    -108.948    -712.512
  H      692.640    -109.518    -711.385
  H      694.152    -110.411    -711.088
  H      693.974    -108.745    -710.484
  P      693.685    -107.553    -713.059
  C      696.161    -106.981    -713.577
  O      694.811    -106.927    -714.021
  C      697.095    -106.472    -714.675
  O      696.676    -105.146    -715.104
  C      698.551    -106.314    -714.254
  O      699.243    -107.562    -714.253
  C      699.063    -105.393    -715.362
  O      699.348    -106.166    -716.542
  C      697.865    -104.475    -715.608
  N      700.128     -99.864    -715.675
  C      700.252    -100.940    -716.484
  N      699.622    -102.140    -716.403
  C      698.781    -102.160    -715.356
  C      698.560    -101.135    -714.447
  C      699.279     -99.944    -714.631
  N      699.152     -98.853    -713.791
  N      697.605    -101.517    -713.512
  C      697.265    -102.752    -713.849
  N      697.967    -103.184    -714.968
  O      693.732    -106.599    -711.768
  O      692.316    -107.619    -713.633
  H      700.012    -106.830    -716.274
  H      692.960    -106.000    -711.785
  H      700.941    -100.827    -717.322
  H      696.539    -103.354    -713.326
  H      697.704    -104.312    -716.684
  H      699.983    -104.868    -715.075
  H      698.630    -105.815    -713.282
  H      697.009    -107.150    -715.538
  H      696.424    -108.023    -713.347
  H      699.536     -97.975    -714.078
  H      698.508     -98.932    -713.003
  H      696.261    -106.376    -712.676
  P      700.012    -107.979    -712.918
  C      699.994    -110.370    -713.923
  O      700.754    -109.369    -713.239
  O      698.821    -108.412    -711.910
  O      700.870    -106.908    -712.314
  H      699.112    -108.295    -710.989
  H      700.601    -111.238    -714.073
  H      699.675    -109.990    -714.871
  H      699.138    -110.631    -713.336

 6  7  8  9  10  11  12  13  14  15  25  28  32  33  34  35 0
 6-311+G(2d,p)
 ****
 36  39  40 0
 6-311+G(2d,p)
 ****
 1  2  3  4  5  16  17  18  19  20  21  22  23  24 0
 3-21G
 ****
 26  27  29  30  31  37  38  41  42  43  44  45  46  47  48 0
 3-21G
 ****


