%nproc=1
%NoSave
%Mem=1900MB
#P OB98/GEN NMR

erre ene a

0 1
  C      -72.736     703.755     356.226
  O      -73.249     704.859     356.983
  P      -72.240     705.586     358.000
  C      -73.084     704.405     360.160
  O      -72.009     704.631     359.267
  C      -72.762     703.246     361.111
  O      -72.622     702.011     360.384
  C      -71.440     703.421     361.837
  O      -71.576     704.338     362.921
  C      -71.116     701.995     362.273
  O      -71.673     701.701     363.578
  C      -71.796     701.132     361.175
  N      -70.838     700.422     360.353
  C      -70.702     699.059     360.614
  O      -71.355     698.526     361.526
  N      -69.816     698.329     359.872
  C      -69.096     698.925     358.960
  N      -68.215     698.158     358.244
  C      -69.190     700.369     358.670
  C      -70.073     701.056     359.389
  O      -73.133     706.777     358.594
  O      -70.991     706.102     357.351
  H      -71.502     700.745     363.721
  H      -72.569     707.557     358.792
  H      -68.571     700.824     357.897
  H      -70.213     702.124     359.249
  H      -72.469     700.405     361.640
  H      -70.040     701.834     362.347
  H      -70.668     703.784     361.143
  H      -73.587     703.146     361.844
  H      -68.169     697.163     358.483
  H      -74.010     704.193     359.605
  H      -67.611     698.522     357.510
  H      -73.278     705.328     360.724
  P      -70.718     705.690     362.867
  C      -69.043     704.518     364.413
  O      -69.221     705.249     363.209
  O      -71.182     706.413     364.236
  O      -70.904     706.574     361.681
  H      -70.800     707.312     364.275
  H      -68.027     704.102     364.430
  H      -69.744     703.696     364.475
  H      -69.155     705.185     365.280
  H      -73.507     703.367     355.594
  H      -72.403     702.988     356.894
  H      -71.915     704.086     355.625

 3  4  5  6  7  8  9  10  11  12  13  21  23  27  28  29  30  32 0
 6-311+G(2d,p)
 ****
 34  35 0
 6-311+G(2d,p)
 ****
 1  2  14  15  16  17  18  19  20  22  24  25  26 0
 3-21G
 ****
 31  33  36  37  38  39  40  41  42  43  44  45  46 0
 3-21G
 ****


