%nproc=1
%NoSave
%Mem=1900MB
#P OB98/GEN NMR

erre ene a

0 1
  C      113.965     558.784    -898.790
  O      115.076     559.469    -898.190
  P      116.352     558.602    -897.760
  C      118.042     560.009    -899.180
  O      117.662     559.543    -897.890
  C      118.807     561.341    -899.050
  O      117.904     562.452    -898.810
  C      119.819     561.366    -897.900
  O      121.045     560.754    -898.280
  C      119.994     562.864    -897.710
  O      120.927     563.358    -898.710
  C      118.591     563.401    -897.960
  N      118.492     565.828    -893.510
  C      119.391     565.881    -894.530
  N      120.455     566.714    -894.350
  N      119.311     565.183    -895.650
  C      118.217     564.415    -895.700
  C      117.211     564.271    -894.760
  C      117.335     565.036    -893.520
  O      116.553     565.019    -892.580
  N      116.239     563.390    -895.160
  C      116.646     563.014    -896.370
  N      117.845     563.599    -896.730
  O      116.524     557.609    -899.010
  O      116.209     557.849    -896.490
  H      120.735     562.881    -899.540
  H      116.960     556.780    -898.730
  H      118.596     566.375    -892.680
  H      116.106     562.327    -897.000
  H      118.605     564.372    -898.480
  H      120.439     563.107    -896.740
  H      120.566     567.300    -893.540
  H      119.392     560.926    -896.990
  H      121.137     566.794    -895.100
  H      119.337     561.512    -900.000
  H      117.174     560.154    -899.820
  H      118.668     559.246    -899.670
  P      122.089     560.389    -897.100
  C      121.776     557.851    -897.540
  O      122.671     558.949    -897.470
  O      121.128     560.117    -895.850
  O      123.102     561.450    -896.820
  H      121.579     560.375    -895.020
  H      122.320     556.989    -897.950
  H      120.932     558.071    -898.180
  H      121.429     557.590    -896.540
  H      113.194     559.489    -899.021
  H      113.586     558.052    -898.107
  H      114.287     558.300    -899.688

 3  4  5  6  7  8  9  10  11  12  23  26  30  31 0
 6-311+G(2d,p)
 ****
 33  35  36  37  38 0
 6-311+G(2d,p)
 ****
 1  2  13  14  15  16  17  18  19  20  21  22  24  25 0
 3-21G
 ****
 27  28  29  32  34  39  40  41  42  43  44  45  46  47  48  49 0
 3-21G
 ****


