%nproc=1
%NoSave
%Mem=1900MB
#P OB98/GEN NMR

erre ene a

0 1
  C      105.556     -66.369     -45.497
  O      106.625     -65.455     -45.631
  H      105.454     -66.969     -46.406
  H      105.766     -67.038     -44.656
  H      104.622     -65.833     -45.298
  P      106.528     -64.401     -46.838
  C      105.682     -62.509     -45.265
  O      105.409     -63.342     -46.382
  C      105.423     -61.055     -45.648
  O      104.103     -60.919     -46.222
  C      105.461     -60.092     -44.465
  O      106.781     -59.708     -44.120
  C      104.676     -58.920     -45.030
  O      105.505     -58.171     -45.937
  C      103.558     -59.639     -45.800
  N      100.222     -57.551     -42.521
  C      101.279     -57.033     -43.187
  N      102.104     -57.649     -44.057
  C      101.744     -58.932     -44.228
  C      100.688     -59.598     -43.624
  C       99.904     -58.853     -42.727
  N       98.847     -59.383     -42.024
  N      100.648     -60.917     -44.033
  C      101.651     -61.037     -44.880
  N      102.363     -59.873     -45.006
  O      105.793     -65.220     -48.002
  O      107.815     -63.789     -47.277
  H      106.377     -58.067     -45.508
  H      105.881     -64.752     -48.854
  H      101.492     -55.987     -42.989
  H      101.908     -61.942     -45.416
  H      103.247     -59.095     -46.700
  H      104.338     -58.227     -44.257
  H      104.924     -60.497     -43.599
  H      106.152     -60.764     -46.415
  H      106.731     -62.632     -44.975
  H       98.444     -58.812     -41.297
  H       98.695     -60.380     -42.058
  H      105.039     -62.798     -44.428
  P      107.050     -59.273     -42.596
  C      107.908     -61.670     -42.069
  O      107.007     -60.622     -41.726
  O      105.693     -58.530     -42.191
  O      108.250     -58.408     -42.399
  H      105.864     -57.817     -41.548
  H      107.762     -62.497     -41.406
  H      108.915     -61.317     -41.984
  H      107.724     -61.983     -43.075

 6  7  8  9  10  11  12  13  14  15  25  28  32  33  34  35 0
 6-311+G(2d,p)
 ****
 36  39  40 0
 6-311+G(2d,p)
 ****
 1  2  3  4  5  16  17  18  19  20  21  22  23  24 0
 3-21G
 ****
 26  27  29  30  31  37  38  41  42  43  44  45  46  47 0
 3-21G
 ****
 48 0
 3-21G
 ****


