%nproc=1
%NoSave
%Mem=1900MB
#P OB98/GEN NMR

erre ene a

0 1
  C     -340.095     -92.522     113.901
  O     -339.437     -91.338     114.307
  H     -340.506     -93.042     114.770
  H     -340.915     -92.257     113.228
  H     -339.399     -93.176     113.368
  P     -338.218     -91.504     115.334
  C     -336.891     -89.399     114.609
  O     -336.933     -90.819     114.653
  C     -336.719     -88.927     113.166
  O     -337.837     -89.423     112.388
  C     -336.657     -87.399     112.993
  O     -335.436     -87.021     112.354
  C     -337.808     -87.077     112.054
  O     -337.486     -86.084     111.083
  C     -338.122     -88.420     111.405
  N     -341.545     -86.505     108.152
  C     -340.196     -86.546     108.105
  N     -339.345     -87.164     108.951
  C     -340.024     -87.818     109.913
  C     -341.398     -87.887     110.076
  C     -342.176     -87.175     109.146
  N     -343.546     -87.088     109.223
  N     -341.720     -88.645     111.187
  C     -340.563     -88.987     111.711
  N     -339.511     -88.493     110.986
  O     -337.889     -93.071     115.264
  O     -338.504     -91.062     116.731
  H     -337.269     -85.271     111.574
  H     -337.811     -93.431     116.167
  H     -339.733     -86.000     107.285
  H     -340.426     -89.546     112.627
  H     -337.490     -88.611     110.529
  H     -338.659     -86.715     112.648
  H     -336.760     -86.863     113.943
  H     -335.811     -89.390     112.758
  H     -336.041     -89.039     115.201
  H     -344.013     -86.463     108.588
  H     -344.013     -87.493     110.023
  H     -337.813     -89.001     115.039
  P     -334.096     -87.111     113.242
  C     -332.704     -88.704     111.726
  O     -333.415     -88.531     112.943
  O     -334.668     -87.282     114.730
  O     -333.209     -85.921     113.119
  H     -334.025     -86.932     115.376
  H     -332.313     -89.699     111.679
  H     -331.898     -88.002     111.681
  H     -333.365     -88.541     110.900

 6  7  8  9  10  11  12  13  14  15  25  28  32  33  34  35 0
 6-311+G(2d,p)
 ****
 36  39  40 0
 6-311+G(2d,p)
 ****
 1  2  3  4  5  16  17  18  19  20  21  22  23  24 0
 3-21G
 ****
 26  27  29  30  31  37  38  41  42  43  44  45  46  47  48 0
 3-21G
 ****


