%nproc=1
%NoSave
%Mem=1900MB
#P OB98/GEN NMR

erre ene a

0 1
  C       91.773     406.270    -486.433
  O       92.472     407.482    -486.668
  P       91.983     408.790    -485.878
  C       94.072     409.071    -484.343
  O       92.691     408.741    -484.436
  C       94.318     409.946    -483.115
  O       93.645     411.221    -483.247
  C       93.803     409.354    -481.805
  O       94.692     408.397    -481.267
  C       93.749     410.595    -480.935
  O       95.065     410.893    -480.429
  C       93.296     411.674    -481.919
  N       89.453     412.909    -478.866
  C       90.816     412.942    -478.626
  N       91.209     413.290    -477.382
  N       91.720     412.651    -479.530
  C       91.172     412.304    -480.736
  C       89.844     412.253    -481.089
  C       88.873     412.555    -480.072
  O       87.645     412.500    -480.194
  N       89.696     411.878    -482.389
  C       90.926     411.706    -482.837
  N       91.867     411.915    -481.855
  O       90.450     408.472    -485.555
  O       92.142     410.078    -486.635
  H       95.636     411.063    -481.197
  H       89.979     409.291    -485.313
  H       88.803     413.122    -478.132
  H       91.186     411.425    -483.845
  H       93.809     412.624    -481.752
  H       93.096     410.469    -480.062
  H       90.563     413.459    -476.622
  H       92.795     408.951    -481.934
  H       92.197     413.253    -477.169
  H       95.396     410.144    -483.057
  H       94.374     409.612    -485.245
  H       94.653     408.150    -484.280
  P       94.077     407.349    -480.221
  C       92.506     406.001    -481.796
  O       92.618     406.989    -480.783
  O       93.767     408.257    -478.936
  O       94.971     406.195    -479.897
  H       93.792     407.715    -478.124
  H       91.457     405.694    -481.870
  H       93.116     405.116    -481.558
  H       92.822     406.422    -482.758
  H       92.205     405.489    -487.023
  H       90.745     406.393    -486.703
  H       91.841     406.014    -485.396

 3  4  5  6  7  8  9  10  11  12  23  26  30  31 0
 6-311+G(2d,p)
 ****
 33  35  36  37  38 0
 6-311+G(2d,p)
 ****
 1  2  13  14  15  16  17  18  19  20  21  22  24  25 0
 3-21G
 ****
 27  28  29  32  34  39  40  41  42  43  44  45  46  47  48  49 0
 3-21G
 ****


