%nproc=1
%NoSave
%Mem=1900MB
#P OB98/GEN NMR

erre ene a

0 1
  C     -180.004     335.357     183.730
  O     -178.874     334.889     184.481
  P     -179.037     334.177     185.911
  C     -177.553     333.503     187.907
  O     -177.621     334.204     186.664
  C     -176.121     333.473     188.459
  O     -175.276     332.636     187.643
  C     -175.436     334.835     188.518
  O     -175.884     335.570     189.640
  C     -173.964     334.426     188.563
  O     -173.588     334.055     189.901
  C     -173.948     333.198     187.642
  N     -169.923     333.731     184.532
  C     -170.020     333.374     185.832
  N     -171.127     333.260     186.594
  C     -172.228     333.534     185.869
  C     -172.288     333.916     184.535
  C     -171.062     334.013     183.853
  N     -170.966     334.391     182.535
  N     -173.590     334.136     184.146
  C     -174.312     333.876     185.222
  N     -173.534     333.509     186.285
  O     -179.675     332.825     185.856
  O     -179.932     335.189     186.770
  H     -172.620     333.930     189.907
  H     -180.440     334.693     187.442
  H     -169.080     333.151     186.328
  H     -175.392     333.936     185.277
  H     -173.280     332.419     188.023
  H     -173.292     335.227     188.244
  H     -175.628     335.392     187.595
  H     -176.160     333.020     189.459
  H     -177.903     332.478     187.746
  H     -170.048     334.470     182.126
  H     -171.806     334.649     182.033
  H     -178.218     333.998     188.623
  P     -176.429     337.067     189.455
  C     -178.707     338.158     189.893
  O     -177.766     337.197     190.330
  O     -176.542     337.540     188.045
  O     -175.381     337.955     190.284
  H     -175.322     338.842     189.883
  H     -178.396     339.153     190.224
  H     -179.681     337.925     190.337
  H     -178.804     338.147     188.802
  H     -179.667     335.795     182.814
  H     -180.534     336.090     184.302
  H     -180.654     334.535     183.514

 3  4  5  6  7  8  9  10  11  12  22  25  29  30  31  32 0
 6-311+G(2d,p)
 ****
 33  36  37 0
 6-311+G(2d,p)
 ****
 1  2  13  14  15  16  17  18  19  20  21  23  24  26 0
 3-21G
 ****
 27  28  34  35  38  39  40  41  42  43  44  45  46  47  48 0
 3-21G
 ****


