%nproc=1
%NoSave
%Mem=1900MB
#P OB98/GEN NMR

erre ene a

0 1
  C      -30.564     -26.989      -8.537
  O      -31.769     -27.715      -8.390
  P      -31.748     -29.266      -8.002
  C      -32.034     -30.170     -10.381
  O      -32.627     -30.050      -9.094
  C      -33.047     -30.659     -11.416
  O      -32.395     -30.749     -12.712
  C      -33.659     -32.035     -11.115
  O      -35.005     -32.003     -11.598
  C      -32.829     -32.967     -11.981
  O      -33.478     -34.205     -12.243
  C      -32.623     -32.086     -13.208
  N      -31.200     -34.533     -17.464
  C      -32.412     -34.327     -16.909
  N      -32.707     -33.688     -15.760
  C      -31.590     -33.233     -15.169
  C      -30.283     -33.392     -15.599
  C      -30.103     -34.065     -16.820
  N      -28.876     -34.254     -17.419
  N      -29.405     -32.833     -14.689
  C      -30.169     -32.348     -13.732
  N      -31.498     -32.510     -14.012
  O      -32.098     -29.574      -6.584
  O      -30.254     -29.729      -8.341
  H      -32.907     -34.734     -12.831
  H      -29.750     -29.853      -7.513
  H      -33.259     -34.724     -17.464
  H      -29.818     -31.877     -12.826
  H      -33.510     -32.061     -13.852
  H      -31.877     -33.183     -11.481
  H      -33.634     -32.311     -10.056
  H      -33.836     -29.902     -11.505
  H      -31.216     -30.892     -10.309
  H      -28.875     -34.630     -18.353
  H      -28.086     -33.694     -17.104
  H      -31.617     -29.204     -10.689
  P      -36.219     -31.806     -10.570
  C      -36.429     -34.347     -10.789
  O      -37.126     -33.120     -10.679
  O      -36.951     -30.510     -10.684
  O      -35.521     -31.966      -9.134
  H      -36.104     -31.594      -8.445
  H      -36.107     -34.492     -11.824
  H      -37.098     -35.164     -10.506
  H      -35.553     -34.363     -10.133
  H      -30.788     -25.975      -8.797
  H      -29.972     -27.433      -9.310
  H      -30.021     -27.010      -7.616

 3  4  5  6  7  8  9  10  11  12  22  25  29  30  31  32 0
 6-311+G(2d,p)
 ****
 33  36  37 0
 6-311+G(2d,p)
 ****
 1  2  13  14  15  16  17  18  19  20  21  23  24  26 0
 3-21G
 ****
 27  28  34  35  38  39  40  41  42  43  44  45  46  47  48 0
 3-21G
 ****


