%nproc=1
%NoSave
%Mem=1900MB
#P OB98/GEN NMR

erre ene a

0 1
  C      627.077     204.022    -115.715
  O      626.570     205.135    -116.426
  H      627.153     204.290    -114.659
  H      628.075     203.755    -116.080
  H      626.403     203.168    -115.814
  P      626.437     205.029    -118.019
  C      628.006     205.620    -119.993
  O      627.905     205.287    -118.613
  C      629.003     206.761    -120.199
  O      628.438     208.005    -119.735
  C      630.312     206.590    -119.447
  O      631.132     205.629    -120.081
  C      630.838     208.018    -119.470
  O      631.416     208.329    -120.748
  C      629.534     208.821    -119.254
  N      629.316     209.208    -117.862
  C      629.391     210.578    -117.587
  O      629.650     211.380    -118.482
  N      629.192     210.993    -116.290
  C      628.899     210.136    -115.369
  N      628.711     210.612    -114.109
  C      628.767     208.687    -115.623
  C      629.001     208.297    -116.876
  O      625.362     205.857    -118.651
  O      626.212     203.465    -118.284
  H      632.205     207.754    -120.839
  H      625.260     203.263    -118.337
  H      628.515     208.011    -114.826
  H      628.923     207.249    -117.155
  H      629.540     209.738    -119.866
  H      631.604     208.194    -118.719
  H      630.118     206.312    -118.401
  H      629.178     206.860    -121.281
  H      628.790     211.620    -113.984
  H      627.008     205.922    -120.324
  H      628.321     210.067    -113.352
  H      628.310     204.743    -120.576
  P      632.026     204.596    -119.239
  C      634.419     204.679    -118.289
  O      633.294     205.439    -118.726
  O      632.357     203.324    -119.941
  O      631.186     204.386    -117.887
  H      630.428     203.776    -118.049
  H      635.197     205.343    -117.973
  H      634.774     204.072    -119.095
  H      634.130     204.052    -117.471

 6  7  8  9  10  11  12  13  14  15  16  26  30  31  32  33  35 0
 6-311+G(2d,p)
 ****
 37  38 0
 6-311+G(2d,p)
 ****
 1  2  3  4  5  17  18  19  20  21  22  23  24  25 0
 3-21G
 ****
 27  28  29  34  36  39  40  41  42  43  44  45  46 0
 3-21G
 ****


