%nproc=1
%NoSave
%Mem=1900MB
#P OB98/GEN NMR

erre ene a

0 1
  C      139.028       5.874     107.027
  O      138.351       4.752     106.495
  H      140.000       5.548     107.405
  H      138.455       6.307     107.851
  H      139.186       6.621     106.244
  P      136.877       5.010     105.915
  C      134.958       6.509     106.791
  O      136.094       5.722     107.120
  C      134.713       7.569     107.862
  O      135.669       8.635     107.736
  C      133.337       8.219     107.800
  O      132.376       7.413     108.462
  C      133.593       9.513     108.558
  O      133.542       9.260     109.975
  C      135.030       9.872     108.142
  N      135.624      14.825     106.932
  C      135.374      14.214     108.109
  N      135.172      12.901     108.350
  C      135.263      12.189     107.214
  C      135.511      12.675     105.939
  C      135.703      14.061     105.817
  N      135.957      14.682     104.614
  N      135.526      11.650     105.017
  C      135.351      10.559     105.732
  N      135.150      10.834     107.061
  O      136.207       3.829     105.300
  O      137.153       6.231     104.916
  H      132.618       9.031     110.188
  H      137.778       6.863     105.313
  H      135.323      14.868     108.975
  H      135.381       9.547     105.343
  H      135.605      10.277     108.983
  H      132.847      10.280     108.345
  H      133.045       8.457     106.771
  H      134.877       7.100     108.842
  H      134.071       5.871     106.692
  H      135.889      15.686     104.589
  H      135.886      14.127     103.773
  H      135.151       6.983     105.824
  P      130.815       7.529     108.113
  C      129.328       9.512     107.430
  O      130.507       9.103     108.114
  O      129.927       6.693     108.965
  O      130.728       7.147     106.563
  H      129.806       6.932     106.324
  H      129.227      10.575     107.497
  H      128.476       9.044     107.877
  H      129.394       9.225     106.401

 6  7  8  9  10  11  12  13  14  15  25  28  32  33  34  35 0
 6-311+G(2d,p)
 ****
 36  39  40 0
 6-311+G(2d,p)
 ****
 1  2  3  4  5  16  17  18  19  20  21  22  23  24 0
 3-21G
 ****
 26  27  29  30  31  37  38  41  42  43  44  45  46  47 0
 3-21G
 ****
 48 0
 3-21G
 ****


