%nproc=1
%NoSave
%Mem=1900MB
#P OB98/GEN NMR

erre ene a

0 1
  C      420.875    -347.032     115.754
  O      420.791    -347.278     117.139
  P      420.395    -348.687     117.767
  C      422.532    -348.862     119.262
  O      421.736    -349.433     118.232
  C      422.872    -349.906     120.336
  O      421.635    -350.379     120.926
  C      423.577    -351.131     119.731
  O      424.656    -351.624     120.512
  C      422.422    -352.084     119.456
  O      422.824    -353.439     119.319
  C      421.485    -351.780     120.622
  N      417.924    -355.350     119.995
  C      419.210    -355.482     120.479
  N      419.657    -356.747     120.639
  N      419.992    -354.465     120.739
  C      419.447    -353.269     120.421
  C      418.184    -353.016     119.939
  C      417.321    -354.143     119.687
  O      416.214    -354.081     119.153
  N      417.999    -351.684     119.668
  C      419.164    -351.135     119.951
  N      420.085    -352.064     120.380
  O      419.366    -349.483     117.033
  O      419.752    -348.243     119.180
  H      423.344    -353.672     120.110
  H      419.036    -348.878     119.382
  H      417.398    -356.177     119.738
  H      419.404    -350.086     119.836
  H      421.757    -352.349     121.514
  H      421.970    -351.789     118.503
  H      419.134    -357.544     120.310
  H      424.053    -350.869     118.780
  H      420.662    -356.871     120.748
  H      423.461    -349.430     121.127
  H      421.937    -348.053     119.698
  H      423.443    -348.425     118.846
  P      426.017    -352.304     120.027
  C      427.704    -350.432     120.499
  O      427.003    -351.156     119.507
  O      425.635    -353.080     118.682
  O      426.629    -353.247     121.009
  H      426.107    -353.934     118.652
  H      428.114    -349.523     120.047
  H      428.527    -351.038     120.883
  H      427.035    -350.151     121.319
  H      421.158    -346.013     115.589
  H      419.923    -347.216     115.301
  H      421.608    -347.680     115.320

 3  4  5  6  7  8  9  10  11  12  23  26  30  31 0
 6-311+G(2d,p)
 ****
 33  35  36  37  38 0
 6-311+G(2d,p)
 ****
 1  2  13  14  15  16  17  18  19  20  21  22  24  25 0
 3-21G
 ****
 27  28  29  32  34  39  40  41  42  43  44  45  46  47  48  49 0
 3-21G
 ****


