%nproc=1
%NoSave
%Mem=1900MB
#P OB98/GEN NMR

erre ene a

0 1
  C      120.486      25.344      76.092
  O      120.176      23.987      76.318
  H      119.621      25.828      75.632
  H      121.337      25.419      75.408
  H      120.720      25.859      77.026
  P      121.114      23.135      77.296
  C      119.321      21.638      78.392
  O      120.417      21.703      77.493
  C      118.037      22.162      77.737
  O      117.661      21.292      76.642
  C      116.880      22.141      78.740
  O      115.911      23.148      78.463
  C      116.258      20.773      78.508
  O      114.906      20.694      78.948
  C      116.436      20.626      76.998
  N      114.076      16.114      76.811
  C      113.718      17.260      77.494
  N      112.595      17.187      78.242
  N      114.408      18.369      77.458
  C      115.547      18.274      76.729
  C      116.020      17.187      76.030
  C      115.226      15.978      76.045
  O      115.504      14.927      75.474
  N      117.221      17.464      75.427
  C      117.479      18.710      75.766
  N      116.484      19.251      76.546
  O      120.901      23.825      78.726
  O      122.566      23.086      76.923
  H      114.386      21.324      78.415
  H      121.672      23.668      79.298
  H      113.500      15.292      76.860
  H      118.361      19.267      75.472
  H      115.615      21.120      76.461
  H      116.829      20.035      79.079
  H      112.134      16.312      78.439
  H      117.226      22.255      79.768
  H      112.482      17.902      78.965
  H      118.208      23.156      77.310
  H      119.576      22.255      79.260
  H      119.182      20.614      78.746
  P      116.139      24.594      79.113
  C      115.373      26.042      77.064
  O      115.137      25.618      78.393
  O      117.585      25.021      78.581
  O      116.062      24.602      80.602
  H      118.243      24.945      79.298
  H      114.601      26.719      76.763
  H      115.376      25.192      76.414
  H      116.321      26.536      77.010

 6  7  8  9  10  11  12  13  14  15  26  29  33  34 0
 6-311+G(2d,p)
 ****
 36  38  39  40  41 0
 6-311+G(2d,p)
 ****
 1  2  3  4  5  16  17  18  19  20  21  22  23  24  25 0
 3-21G
 ****
 27  28  30  31  32  35  37  42  43  44  45  46  47 0
 3-21G
 ****
 48  49 0
 3-21G
 ****


