%nproc=1
%NoSave
%Mem=1900MB
#P OB98/GEN NMR

erre ene a

0 1
  C     -777.717    -770.349    -342.473
  O     -778.756    -771.277    -342.154
  P     -778.485    -772.837    -342.371
  C     -780.109    -773.496    -340.470
  O     -779.754    -773.662    -341.837
  C     -781.594    -773.742    -340.253
  O     -782.368    -772.779    -341.027
  C     -782.094    -775.115    -340.716
  O     -782.057    -776.200    -339.782
  C     -783.581    -774.825    -340.988
  O     -784.320    -774.913    -339.742
  C     -783.585    -773.403    -341.497
  N     -786.592    -774.125    -345.573
  C     -786.805    -774.288    -344.254
  N     -785.960    -774.076    -343.234
  C     -784.774    -773.626    -343.690
  C     -784.407    -773.417    -345.002
  C     -785.367    -773.686    -345.983
  N     -785.152    -773.515    -347.328
  N     -783.089    -772.959    -345.082
  C     -782.678    -772.925    -343.835
  N     -783.663    -773.303    -342.951
  O     -777.158    -773.339    -341.908
  O     -778.625    -772.993    -343.963
  H     -784.121    -775.790    -339.377
  H     -777.962    -773.641    -344.272
  H     -787.794    -774.635    -343.976
  H     -781.676    -772.637    -343.522
  H     -784.413    -772.806    -341.098
  H     -784.032    -775.567    -341.656
  H     -781.604    -775.426    -341.653
  H     -781.853    -773.598    -339.191
  H     -779.853    -772.482    -340.156
  H     -785.896    -773.781    -347.965
  H     -784.235    -773.251    -347.659
  H     -779.471    -774.166    -339.884
  P     -780.680    -776.969    -339.454
  C     -781.506    -777.864    -337.127
  O     -781.092    -778.152    -338.454
  O     -779.570    -776.098    -338.967
  O     -780.378    -777.738    -340.809
  H     -780.998    -778.457    -341.023
  H     -781.939    -778.770    -336.682
  H     -782.259    -777.077    -337.120
  H     -780.625    -777.560    -336.526
  H     -778.054    -769.353    -342.273
  H     -777.464    -770.439    -343.509
  H     -776.855    -770.560    -341.876

 3  4  5  6  7  8  9  10  11  12  22  25  29  30  31  32 0
 6-311+G(2d,p)
 ****
 33  36  37 0
 6-311+G(2d,p)
 ****
 1  2  13  14  15  16  17  18  19  20  21  23  24  26 0
 3-21G
 ****
 27  28  34  35  38  39  40  41  42  43  44  45  46  47  48 0
 3-21G
 ****


