%nproc=1
%NoSave
%Mem=1900MB
#P OB98/GEN NMR

erre ene a

0 1
  C     -898.790    -922.189      17.761
  O     -898.400    -920.827      17.564
  P     -898.720    -920.175      16.124
  C     -896.230    -919.537      15.559
  O     -897.560    -919.094      15.860
  C     -895.370    -918.345      15.153
  O     -895.890    -917.722      13.932
  C     -895.310    -917.213      16.192
  O     -894.480    -917.589      17.277
  C     -894.780    -916.071      15.349
  O     -893.360    -916.163      15.190
  C     -895.490    -916.322      13.988
  N     -896.620    -915.427      13.759
  C     -896.340    -914.260      13.040
  O     -895.210    -913.985      12.652
  N     -897.410    -913.439      12.822
  C     -898.680    -913.631      13.245
  O     -899.600    -912.872      12.985
  C     -898.920    -914.868      14.039
  C     -897.890    -915.700      14.259
  O     -900.000    -919.296      16.469
  O     -898.900    -921.188      15.056
  H     -899.990    -918.908      17.351
  H     -892.980    -916.268      16.098
  H     -897.230    -912.602      12.296
  H     -899.910    -915.052      14.398
  H     -898.050    -916.594      14.825
  H     -894.790    -916.183      13.172
  H     -895.000    -915.087      15.787
  H     -896.320    -917.006      16.551
  H     -894.360    -918.713      14.928
  H     -896.260    -920.273      14.750
  H     -895.810    -920.033      16.440
  P     -895.180    -917.840      18.694
  C     -895.120    -915.403      19.649
  O     -894.610    -916.728      19.713
  O     -894.500    -919.199      19.163
  O     -896.680    -917.904      18.617
  H     -893.520    -919.203      19.030
  H     -894.860    -914.922      20.605
  H     -896.200    -915.384      19.532
  H     -894.630    -914.848      18.859
  H     -898.523    -922.497      18.750
  H     -898.291    -922.810      17.047
  H     -899.849    -922.279      17.633

 3  4  5  6  7  8  9  10  11  12  13  24  28  29  30  31  32 0
 6-311+G(2d,p)
 ****
 33  34 0
 6-311+G(2d,p)
 ****
 1  2  14  15  16  17  18  19  20  21  22  23  25  26  27 0
 3-21G
 ****
 35  36  37  38  39  40  41  42  43  44  45 0
 3-21G
 ****


