%nproc=1
%NoSave
%Mem=1900MB
#P OB98/GEN NMR

erre ene a

0 1
  C       89.780      19.755      39.378
  O       91.149      19.626      39.702
  P       92.293      19.773      38.588
  C       91.873      17.278      38.134
  O       92.058      18.562      37.560
  C       91.282      16.295      37.121
  O       90.037      16.831      36.592
  C       92.194      15.981      35.928
  O       91.940      14.618      35.574
  C       91.666      16.917      34.857
  O       92.046      16.521      33.546
  C       90.161      16.873      35.154
  N       89.455      18.008      34.572
  C       88.793      17.784      33.363
  O       88.884      16.692      32.798
  N       88.088      18.813      32.793
  C       88.131      19.992      33.331
  N       87.409      20.972      32.724
  C       88.921      20.301      34.536
  C       89.540      19.271      35.108
  O       93.682      19.888      39.116
  O       91.827      21.044      37.736
  H       93.002      16.710      33.432
  H       92.033      21.881      38.224
  H       88.972      21.310      34.916
  H       90.143      19.399      35.996
  H       89.717      15.949      34.760
  H       92.056      17.928      35.027
  H       93.256      16.136      36.135
  H       91.034      15.370      37.655
  H       86.870      20.713      31.908
  H       91.177      17.379      38.971
  H       87.308      21.900      33.106
  H       92.821      16.904      38.530
  P       93.131      13.625      35.174
  C       92.607      13.689      32.671
  O       93.558      13.987      33.675
  O       92.856      12.177      35.417
  O       94.380      14.134      36.042
  H       95.069      13.443      36.055
  H       92.877      14.222      31.755
  H       91.603      13.994      32.977
  H       92.612      12.613      32.470
  H       89.190      19.622      40.261
  H       89.513      19.012      38.656
  H       89.600      20.728      38.972

 3  4  5  6  7  8  9  10  11  12  13  23  27  28  29  30  32 0
 6-311+G(2d,p)
 ****
 34  35 0
 6-311+G(2d,p)
 ****
 1  2  14  15  16  17  18  19  20  21  22  24  25  26 0
 3-21G
 ****
 31  33  36  37  38  39  40  41  42  43  44  45  46 0
 3-21G
 ****


