%nproc=1
%NoSave
%Mem=1900MB
#P OB98/GEN NMR

erre ene a

0 1
  C      647.396     255.803    -580.950
  O      647.932     256.889    -580.225
  H      646.530     255.411    -580.405
  H      648.143     255.010    -581.041
  H      647.076     256.127    -581.942
  P      649.115     257.726    -580.911
  C      647.755     259.833    -580.235
  O      648.519     259.183    -581.240
  C      646.964     260.994    -580.835
  O      647.891     262.007    -581.299
  C      646.083     260.586    -582.014
  O      644.852     261.324    -581.953
  C      646.876     261.044    -583.231
  O      646.047     261.288    -584.371
  C      647.598     262.286    -582.683
  N      648.808     262.580    -583.445
  C      649.432     263.802    -583.168
  O      648.959     264.565    -582.330
  N      650.550     264.151    -583.890
  C      650.942     263.393    -584.870
  N      652.036     263.813    -585.568
  C      650.270     262.133    -585.234
  C      649.220     261.791    -584.492
  O      649.250     257.060    -582.359
  O      650.407     257.744    -580.162
  H      646.636     261.390    -585.158
  H      650.177     257.090    -582.678
  H      650.625     261.551    -586.073
  H      648.657     260.883    -584.691
  H      646.934     263.162    -582.713
  H      647.602     260.269    -583.507
  H      645.861     259.520    -582.045
  H      646.360     261.451    -580.043
  H      652.461     264.688    -585.290
  H      648.436     260.231    -579.472
  H      652.404     263.326    -586.371
  H      647.079     259.104    -579.761
  P      643.634     260.759    -582.814
  C      641.529     261.050    -581.306
  O      642.528     260.163    -581.800
  O      644.236     259.449    -583.509
  O      643.112     261.716    -583.826
  H      644.373     259.609    -584.463
  H      640.872     260.518    -580.651
  H      640.969     261.449    -582.126
  H      641.996     261.850    -580.770

 6  7  8  9  10  11  12  13  14  15  16  26  30  31  32  33  35 0
 6-311+G(2d,p)
 ****
 37  38 0
 6-311+G(2d,p)
 ****
 1  2  3  4  5  17  18  19  20  21  22  23  24  25 0
 3-21G
 ****
 27  28  29  34  36  39  40  41  42  43  44  45  46 0
 3-21G
 ****


