%nproc=1
%NoSave
%Mem=1900MB
#P OB98/GEN NMR

erre ene a

0 1
  C       51.776      84.526     -74.439
  O       51.290      83.177     -74.337
  P       51.504      82.173     -75.574
  C       49.075      81.210     -75.701
  O       50.450      80.970     -75.447
  C       48.254      79.956     -75.387
  O       48.796      78.809     -76.081
  C       48.245      79.563     -73.917
  O       47.379      80.385     -73.153
  C       47.790      78.111     -73.996
  O       46.359      78.026     -74.100
  C       48.460      77.640     -75.302
  N       49.632      76.803     -75.063
  C       49.514      75.461     -75.404
  O       48.473      74.961     -75.827
  N       50.630      74.694     -75.206
  C       51.805      75.116     -74.650
  O       52.765      74.375     -74.481
  C       51.842      76.525     -74.235
  C       50.770      77.290     -74.453
  O       52.880      81.449     -75.180
  O       51.610      82.813     -76.918
  H       45.993      78.613     -73.408
  H       53.343      81.165     -75.990
  H       50.575      73.724     -75.474
  H       52.746      76.893     -73.769
  H       50.783      78.333     -74.152
  H       47.744      77.071     -75.908
  H       48.083      77.533     -73.114
  H       49.264      79.598     -73.515
  H       47.229      80.120     -75.748
  H       48.942      81.469     -76.755
  H       48.741      82.053     -75.088
  P       47.873      80.778     -71.676
  C       45.599      81.304     -70.501
  O       46.768      81.795     -71.118
  O       49.145      81.689     -72.015
  O       48.168      79.590     -70.822
  H       49.026      82.195     -72.837
  H       45.789      80.375     -69.959
  H       44.834      81.130     -71.263
  H       45.232      82.055     -69.795
  H       51.553      85.055     -73.536
  H       51.302      85.014     -75.265
  H       52.835      84.513     -74.592

 3  4  5  6  7  8  9  10  11  12  13  23  28  29  30  31  32 0
 6-311+G(2d,p)
 ****
 33  34 0
 6-311+G(2d,p)
 ****
 1  2  14  15  16  17  18  19  20  21  22  24  25  26 0
 3-21G
 ****
 27  35  36  37  38  39  40  41  42  43  44  45 0
 3-21G
 ****


