%nproc=1
%NoSave
%Mem=1900MB
#P OB98/GEN NMR

erre ene a

0 1
  C       36.890     106.140     433.825
  O       37.572     105.084     434.506
  P       38.027     105.395     436.013
  C       37.250     103.052     436.802
  O       38.312     103.988     436.732
  C       37.328     102.038     435.658
  O       38.700     101.569     435.480
  C       36.451     100.791     435.874
  O       35.967     100.396     434.586
  C       37.461      99.785     436.406
  O       36.999      98.444     436.346
  C       38.656     100.126     435.526
  N       42.749      97.350     434.273
  C       41.653      97.710     433.573
  N       40.600      98.450     433.981
  C       40.765      98.836     435.259
  C       41.824      98.546     436.100
  C       42.859      97.765     435.559
  N       43.971      97.375     436.272
  N       41.619      99.104     437.355
  C       40.420      99.652     437.276
  N       39.906      99.587     436.013
  O       36.685     105.918     436.709
  O       39.141     106.383     436.108
  H       37.733      97.831     436.548
  H       36.680     106.892     436.751
  H       41.612      97.351     432.547
  H       39.884     100.102     438.100
  H       38.528      99.765     434.497
  H       37.677     100.008     437.458
  H       35.603     100.962     436.539
  H       37.035     102.540     434.728
  H       36.288     103.572     436.751
  H       44.658      96.810     435.797
  H       44.086      97.652     437.237
  H       37.275     102.554     437.776
  P       34.408     100.578     434.252
  C       34.778     101.522     431.894
  O       34.316     100.423     432.658
  O       34.258     102.169     434.420
  O       33.459      99.784     435.081
  H       34.950     102.642     433.921
  H       34.735     101.256     430.837
  H       35.812     101.761     432.160
  H       34.136     102.393     432.067
  H       36.637     105.821     432.835
  H       37.526     106.999     433.771
  H       35.997     106.390     434.359

 3  4  5  6  7  8  9  10  11  12  22  25  29  30  31  32 0
 6-311+G(2d,p)
 ****
 33  36  37 0
 6-311+G(2d,p)
 ****
 1  2  13  14  15  16  17  18  19  20  21  23  24  26 0
 3-21G
 ****
 27  28  34  35  38  39  40  41  42  43  44  45  46  47  48 0
 3-21G
 ****


