%nproc=1
%NoSave
%Mem=1900MB
#P OB98/GEN NMR

erre ene a

0 1
  C        6.583    -167.135     -36.824
  O        6.604    -167.776     -38.085
  P        5.288    -167.846     -38.991
  C        3.769    -169.297     -37.526
  O        4.572    -169.253     -38.698
  C        3.847    -170.665     -36.850
  O        3.368    -170.546     -35.482
  C        3.017    -171.764     -37.530
  O        3.737    -172.989     -37.359
  C        1.751    -171.796     -36.692
  O        1.034    -173.019     -36.817
  C        2.334    -171.540     -35.308
  N       -1.935    -172.711     -32.751
  C       -1.217    -173.400     -33.663
  N       -0.105    -173.009     -34.319
  C        0.255    -171.769     -33.947
  C       -0.395    -170.934     -33.052
  C       -1.537    -171.459     -32.421
  N       -2.261    -170.785     -31.462
  N        0.249    -169.713     -32.979
  C        1.265    -169.813     -33.812
  N        1.344    -171.059     -34.369
  O        5.493    -167.540     -40.438
  O        4.296    -166.787     -38.314
  H        0.306    -173.017     -36.167
  H        4.239    -165.985     -38.868
  H       -1.579    -174.397     -33.895
  H        1.965    -169.025     -34.047
  H        2.797    -172.438     -34.882
  H        1.085    -170.981     -37.002
  H        2.817    -171.579     -38.590
  H        4.901    -170.961     -36.797
  H        2.734    -169.097     -37.818
  H       -2.979    -171.303     -30.981
  H       -1.843    -169.975     -31.010
  H        4.088    -168.513     -36.829
  P        4.128    -173.874     -38.638
  C        2.974    -175.901     -37.584
  O        4.173    -175.395     -38.143
  O        5.328    -173.410     -39.394
  O        2.804    -173.826     -39.542
  H        3.023    -174.093     -40.456
  H        2.890    -175.572     -36.543
  H        3.001    -176.993     -37.612
  H        2.100    -175.553     -38.143
  H        7.553    -167.195     -36.377
  H        5.868    -167.618     -36.190
  H        6.311    -166.108     -36.951

 3  4  5  6  7  8  9  10  11  12  22  25  29  30  31  32 0
 6-311+G(2d,p)
 ****
 33  36  37 0
 6-311+G(2d,p)
 ****
 1  2  13  14  15  16  17  18  19  20  21  23  24  26 0
 3-21G
 ****
 27  28  34  35  38  39  40  41  42  43  44  45  46  47  48 0
 3-21G
 ****


