%nproc=1
%NoSave
%Mem=1900MB
#P OB98/GEN NMR

erre ene a

0 1
  C      574.479     -11.797     197.646
  O      574.305     -13.055     198.284
  P      575.153     -13.328     199.622
  C      574.222     -15.728     199.303
  O      575.319     -14.924     199.706
  C      574.669     -17.170     199.066
  O      575.470     -17.242     197.877
  C      575.531     -17.750     200.174
  O      574.754     -18.203     201.272
  C      576.193     -18.917     199.452
  O      575.299     -20.044     199.431
  C      576.388     -18.353     198.035
  N      580.740     -19.290     195.613
  C      579.558     -20.011     195.620
  N      579.524     -21.122     194.854
  N      578.503     -19.670     196.320
  C      578.672     -18.516     197.005
  C      579.791     -17.714     197.077
  C      580.966     -18.131     196.337
  O      582.060     -17.568     196.345
  N      579.574     -16.616     197.870
  C      578.312     -16.721     198.242
  N      577.730     -17.883     197.772
  O      574.103     -13.007     200.792
  O      576.400     -12.518     199.761
  H      575.752     -20.759     198.953
  H      574.579     -12.750     201.606
  H      581.509     -19.585     195.036
  H      577.784     -16.008     198.853
  H      576.123     -19.097     197.274
  H      577.116     -19.249     199.937
  H      580.250     -21.358     194.191
  H      576.300     -17.032     200.497
  H      578.652     -21.639     194.815
  H      573.769     -17.788     198.915
  H      573.801     -15.333     198.368
  H      573.448     -15.688     200.077
  P      575.460     -18.171     202.718
  C      573.456     -19.525     203.679
  O      574.861     -19.431     203.507
  O      574.782     -16.907     203.431
  O      576.952     -18.067     202.675
  H      575.380     -16.546     204.113
  H      572.925     -19.148     202.802
  H      573.163     -18.950     204.560
  H      573.189     -20.577     203.828
  H      573.860     -11.750     196.775
  H      575.504     -11.680     197.362
  H      574.204     -11.014     198.321

 3  4  5  6  7  8  9  10  11  12  23  26  30  31  33  0
 6-311+G(2d,p)
 ****
 35  36  37  38 0
 6-311+G(2d,p)
 ****
 1  2  13  14  15  16  17  18  19  20  21  22  24  25  27  28  29 0
 3-21G
 ****
 32  34  39  40  41  42  43  44  45  46  47  48  49 0
 3-21G
 ****


