%nproc=1
%NoSave
%Mem=1900MB
#P OB98/GEN NMR

erre ene a

0 1
  C      320.536     452.770     485.101
  O      319.914     452.099     486.179
  H      321.343     452.142     484.713
  H      320.965     453.717     485.442
  H      319.820     452.956     484.292
  P      318.596     452.737     486.829
  C      319.827     452.719     489.100
  O      319.052     453.476     488.176
  C      320.936     453.594     489.682
  O      321.791     454.089     488.624
  C      320.431     454.826     490.420
  O      319.928     454.492     491.697
  C      321.684     455.690     490.432
  O      322.571     455.289     491.488
  C      322.294     455.379     489.047
  N      322.002     456.413     488.050
  C      323.054     457.255     487.706
  O      324.173     457.184     488.221
  N      322.770     458.214     486.771
  C      321.541     458.475     486.244
  O      321.319     459.404     485.471
  C      320.459     457.569     486.658
  C      320.738     456.596     487.528
  O      317.434     451.809     486.977
  O      318.245     453.958     485.852
  H      322.755     454.339     491.350
  H      317.482     453.716     485.291
  H      323.515     458.844     486.520
  H      319.471     457.734     486.250
  H      319.951     455.918     487.851
  H      323.386     455.277     489.124
  H      321.457     456.742     490.588
  H      319.660     455.334     489.820
  H      321.552     452.973     490.345
  H      320.271     451.867     488.572
  H      319.170     452.346     489.896
  P      318.362     454.636     492.001
  C      318.646     455.719     494.315
  O      318.161     455.887     492.981
  O      317.682     453.381     492.431
  O      317.751     455.165     490.618
  H      317.100     454.516     490.282
  H      318.460     456.610     494.877
  H      319.698     455.526     494.290
  H      318.143     454.895     494.776

 6  7  8  9  10  11  12  13  14  15  16  26  31  32  33  34  35 0
 6-311+G(2d,p)
 ****
 36  37 0
 6-311+G(2d,p)
 ****
 1  2  3  4  5  17  18  19  20  21  22  23  24  25 0
 3-21G
 ****
 27  28  29  30  38  39  40  41  42  43  44  45 0
 3-21G
 ****


