%nproc=1
%NoSave
%Mem=1900MB
#P OB98/GEN NMR

erre ene a

0 1
  C      472.358    -107.614     333.359
  O      473.191    -106.472     333.346
  H      472.339    -108.045     332.353
  H      471.342    -107.325     333.638
  H      472.742    -108.363     334.056
  P      473.521    -105.802     334.768
  C      471.485    -104.195     334.668
  O      472.128    -105.261     335.352
  C      470.065    -104.004     335.204
  O      469.279    -105.195     334.976
  C      469.992    -103.723     336.701
  O      470.226    -102.353     336.998
  C      468.551    -104.110     336.988
  O      467.666    -103.057     336.541
  C      468.377    -105.355     336.111
  N      466.730    -108.796     339.450
  C      466.138    -107.627     339.019
  N      464.936    -107.321     339.556
  N      466.670    -106.822     338.136
  C      467.878    -107.247     337.690
  C      468.569    -108.384     338.042
  C      467.961    -109.273     339.013
  O      468.430    -110.332     339.413
  N      469.756    -108.480     337.366
  C      469.802    -107.397     336.627
  N      468.685    -106.602     336.788
  O      474.302    -104.456     334.375
  O      474.331    -106.645     335.701
  H      466.789    -103.248     336.924
  H      474.994    -104.290     335.045
  H      466.278    -109.373     340.139
  H      470.606    -107.134     335.957
  H      467.361    -105.452     335.715
  H      468.357    -104.258     338.050
  H      464.490    -107.868     340.278
  H      470.665    -104.383     337.269
  H      464.465    -106.482     339.232
  H      469.597    -103.188     334.635
  H      471.440    -104.426     333.600
  H      472.070    -103.277     334.812
  P      470.847    -101.993     338.437
  C      468.498    -101.162     339.174
  O      469.610    -102.014     339.458
  O      471.198    -100.435     338.304
  O      472.039    -102.806     338.828
  H      471.889    -100.197     338.946
  H      467.754    -101.281     339.934
  H      468.082    -101.424     338.224
  H      468.826    -100.144     339.151

 6  7  8  9  10  11  12  13  14  15  26  29  33  34 0
 6-311+G(2d,p)
 ****
 36  38  39  40  41 0
 6-311+G(2d,p)
 ****
 1  2  3  4  5  16  17  18  19  20  21  22  23  24  25 0
 3-21G
 ****
 27  28  30  31  32  35  37  42  43  44  45  46  47 0
 3-21G
 ****
 48  49 0
 3-21G
 ****


