%nproc=1
%NoSave
%Mem=1900MB
#P OB98/GEN NMR

erre ene a

0 1
  C      -37.994     915.672    1287.881
  O      -36.946     914.862    1288.403
  P      -36.598     913.455    1287.711
  C      -37.869     912.230    1289.577
  O      -36.652     912.327    1288.845
  C      -38.067     910.805    1290.082
  O      -38.111     909.873    1288.982
  C      -36.952     910.323    1291.027
  O      -37.069     910.868    1292.325
  C      -37.145     908.798    1290.956
  O      -38.203     908.382    1291.869
  C      -37.572     908.599    1289.496
  N      -35.260     904.469    1287.558
  C      -36.239     904.602    1288.517
  N      -36.776     905.743    1288.984
  C      -36.181     906.822    1288.427
  C      -35.179     906.850    1287.468
  C      -34.731     905.581    1287.025
  N      -33.778     905.431    1286.021
  N      -34.810     908.123    1287.163
  C      -35.609     908.909    1287.915
  N      -36.486     908.136    1288.643
  O      -35.381     913.448    1286.845
  O      -37.913     913.130    1286.817
  H      -38.371     907.452    1291.684
  H      -37.664     913.074    1285.879
  H      -36.628     903.673    1288.912
  H      -35.574     909.977    1287.929
  H      -38.402     907.877    1289.406
  H      -36.240     908.243    1291.242
  H      -35.972     910.584    1290.597
  H      -39.059     910.741    1290.599
  H      -38.699     912.502    1288.925
  H      -33.649     904.484    1285.667
  H      -33.589     906.212    1285.391
  H      -37.850     912.950    1290.412
  P      -35.869     911.730    1292.938
  C      -35.230     909.696    1294.386
  O      -35.538     911.094    1294.359
  O      -36.076     913.217    1292.968
  O      -34.583     911.314    1292.053
  H      -33.987     912.081    1292.001
  H      -36.163     909.117    1294.299
  H      -34.728     909.439    1295.296
  H      -34.580     909.429    1293.544
  H      -38.080     916.564    1288.466
  H      -38.916     915.130    1287.919
  H      -37.773     915.930    1286.866

 3  4  5  6  7  8  9  10  11  12  22  25  29  30  31  32 0
 6-311+G(2d,p)
 ****
 33  36  37 0
 6-311+G(2d,p)
 ****
 1  2  13  14  15  16  17  18  19  20  21  23  24  26 0
 3-21G
 ****
 27  28  34  35  38  39  40  41  42  43  44  45  46  47  48 0
 3-21G
 ****


