%nproc=1
%NoSave
%Mem=1900MB
#P OB98/GEN NMR

erre ene a

0 1
  C     -435.304     369.164    -458.747
  O     -436.070     370.066    -457.956
  P     -435.551     370.524    -456.504
  C     -435.679     369.600    -454.108
  O     -435.941     369.343    -455.491
  C     -436.660     368.826    -453.223
  O     -437.931     369.528    -453.208
  C     -436.929     367.400    -453.724
  O     -437.097     366.546    -452.584
  C     -438.271     367.507    -454.438
  O     -438.955     366.246    -454.443
  C     -438.956     368.615    -453.647
  N     -443.888     369.000    -455.043
  C     -443.249     368.159    -454.198
  N     -441.942     368.094    -453.894
  C     -441.263     369.068    -454.528
  C     -441.773     370.006    -455.409
  C     -443.151     369.949    -455.670
  N     -443.802     370.818    -456.522
  N     -440.768     370.831    -455.873
  C     -439.677     370.407    -455.277
  N     -439.930     369.353    -454.436
  O     -436.001     371.885    -456.081
  O     -433.964     370.422    -456.595
  H     -439.868     366.412    -454.764
  H     -433.541     371.163    -456.104
  H     -443.894     367.424    -453.704
  H     -438.690     370.824    -455.405
  H     -439.461     368.226    -452.759
  H     -438.102     367.800    -455.485
  H     -436.133     367.011    -454.371
  H     -436.273     368.813    -452.202
  H     -435.796     370.672    -453.928
  H     -444.802     370.781    -456.551
  H     -443.285     371.628    -456.863
  H     -434.641     369.323    -453.875
  P     -436.557     365.037    -452.772
  C     -437.540     363.007    -454.090
  O     -437.473     364.419    -453.936
  O     -436.510     364.302    -451.470
  O     -435.138     365.292    -453.450
  H     -435.104     366.157    -453.924
  H     -438.181     362.794    -454.956
  H     -437.979     362.543    -453.199
  H     -436.542     362.593    -454.263
  H     -435.811     368.982    -459.672
  H     -435.183     368.241    -458.219
  H     -434.343     369.591    -458.945

 3  4  5  6  7  8  9  10  11  12  22  25  29  30  31  32 0
 6-311+G(2d,p)
 ****
 33  36  37 0
 6-311+G(2d,p)
 ****
 1  2  13  14  15  16  17  18  19  20  21  23  24  26 0
 3-21G
 ****
 27  28  34  35  38  39  40  41  42  43  44  45  46  47  48 0
 3-21G
 ****


