%nproc=1
%NoSave
%Mem=1900MB
#P OB98/GEN NMR

erre ene a

0 1
  C      130.444     -72.741     135.516
  O      131.849     -72.451     135.425
  P      132.329     -70.919     135.360
  C      132.632     -69.188     133.419
  O      132.657     -70.546     133.833
  C      133.853     -68.880     132.548
  O      135.072     -69.042     133.311
  C      134.012     -69.795     131.344
  O      133.117     -69.456     130.297
  C      135.478     -69.569     130.987
  O      135.635     -68.381     130.192
  C      136.120     -69.385     132.375
  N      136.862     -70.564     132.814
  C      138.091     -70.782     132.207
  O      138.535     -70.072     131.305
  N      138.793     -71.871     132.650
  C      138.360     -72.783     133.573
  O      139.026     -73.750     133.914
  C      137.016     -72.545     134.119
  C      136.338     -71.466     133.717
  O      133.798     -71.003     136.002
  O      131.481     -69.941     136.105
  H      135.047     -68.481     129.418
  H      134.020     -70.149     136.420
  H      139.702     -72.031     132.245
  H      136.626     -73.257     134.834
  H      135.342     -71.277     134.114
  H      136.804     -68.528     132.363
  H      135.902     -70.398     130.409
  H      133.877     -70.842     131.648
  H      133.790     -67.830     132.230
  H      132.647     -68.543     134.300
  H      131.706     -69.002     132.864
  P      132.143     -70.623     129.775
  C      132.554     -72.813     128.411
  O      133.101     -71.673     129.035
  O      131.366     -69.861     128.598
  O      131.266     -71.176     130.851
  H      131.930     -69.211     128.149
  H      131.567     -72.608     127.992
  H      132.483     -73.626     129.141
  H      133.221     -73.123     127.599
  H      130.300     -73.801     135.550
  H      129.941     -72.340     134.661
  H      130.045     -72.298     136.405

 3  4  5  6  7  8  9  10  11  12  13  23  28  29  30  31  32 0
 6-311+G(2d,p)
 ****
 33  34 0
 6-311+G(2d,p)
 ****
 1  2  14  15  16  17  18  19  20  21  22  24  25  26 0
 3-21G
 ****
 27  35  36  37  38  39  40  41  42  43  44  45 0
 3-21G
 ****


