%nproc=1
%NoSave
%Mem=1900MB
#P OB98/GEN NMR

erre ene a

0 1
  C       58.447     -63.303      10.104
  O       57.273     -63.975       9.694
  H       58.701     -62.553       9.352
  H       59.272     -64.014      10.185
  H       58.287     -62.804      11.063
  P       56.670     -65.063      10.708
  C       54.925     -65.033      12.626
  O       55.631     -64.279      11.652
  C       53.494     -64.521      12.772
  O       53.527     -63.188      13.363
  C       52.723     -64.414      11.446
  O       51.349     -64.733      11.705
  C       52.811     -62.932      11.120
  O       51.786     -62.505      10.227
  C       52.715     -62.341      12.526
  N       51.166     -57.575      12.080
  C       50.454     -58.758      12.034
  N       49.121     -58.658      11.840
  N       50.999     -59.937      12.168
  C       52.336     -59.886      12.390
  C       53.155     -58.784      12.452
  C       52.541     -57.484      12.275
  O       53.122     -56.404      12.285
  N       54.461     -59.153      12.665
  C       54.427     -60.472      12.733
  N       53.161     -60.963      12.572
  O       57.909     -65.364      11.676
  O       56.142     -66.306      10.073
  H       51.944     -62.933       9.360
  H       58.410     -66.136      11.354
  H       50.698     -56.694      11.957
  H       55.284     -61.113      12.891
  H       51.689     -62.356      12.915
  H       53.782     -62.702      10.664
  H       48.625     -57.784      11.776
  H       53.108     -65.055      10.646
  H       48.575     -59.513      11.849
  H       52.963     -65.166      13.481
  H       55.440     -64.939      13.589
  H       54.916     -66.086      12.329
  P       50.716     -66.000      10.958
  C       51.558     -68.456      10.792
  O       51.328     -67.326      11.620
  O       51.431     -65.960       9.523
  O       49.229     -65.961      10.834
  H       50.853     -66.371       8.855
  H       51.965     -69.252      11.380
  H       52.248     -68.196      10.017
  H       50.634     -68.772      10.355

 6  7  8  9  10  11  12  13  14  15  26  29  33  34 0
 6-311+G(2d,p)
 ****
 36  38  39  40  41 0
 6-311+G(2d,p)
 ****
 1  2  3  4  5  16  17  18  19  20  21  22  23  24  25 0
 3-21G
 ****
 27  28  30  31  32  35  37  42  43  44  45  46  47 0
 3-21G
 ****
 48  49 0
 3-21G
 ****


