%nproc=1
%NoSave
%Mem=1900MB
#P OB98/GEN NMR

erre ene a

0 1
  C       48.601     533.568     206.489
  O       49.946     533.361     206.096
  H       48.023     532.671     206.254
  H       48.175     534.419     205.946
  H       48.543     533.753     207.565
  P       50.937     534.614     206.270
  C       50.436     534.828     203.718
  O       51.389     534.941     204.763
  C       50.897     535.626     202.507
  O       49.931     535.541     201.443
  C       51.077     537.120     202.772
  O       52.295     537.414     203.442
  C       51.071     537.651     201.353
  O       52.340     537.377     200.722
  C       49.942     536.805     200.721
  N       48.633     537.448     200.795
  C       48.275     538.275     199.716
  O       49.048     538.441     198.771
  N       47.060     538.920     199.750
  C       46.262     538.753     200.766
  N       45.084     539.429     200.752
  C       46.591     537.881     201.905
  C       47.773     537.272     201.856
  O       52.262     533.961     206.893
  O       50.402     535.779     207.036
  H       52.225     537.550     199.772
  H       52.985     534.635     206.925
  H       45.905     537.779     202.731
  H       48.084     536.615     202.665
  H       50.165     536.579     199.666
  H       50.915     538.729     201.301
  H       50.218     537.537     203.310
  H       51.830     535.171     202.139
  H       44.911     540.060     199.980
  H       49.472     535.212     204.081
  H       44.489     539.499     201.566
  H       50.311     533.776     203.437
  P       52.196     538.214     204.838
  C       51.832     540.587     203.841
  O       52.696     539.713     204.554
  O       53.389     537.584     205.697
  O       50.878     538.103     205.543
  H       53.139     537.478     206.630
  H       52.302     541.542     203.732
  H       50.915     540.700     204.380
  H       51.629     540.177     202.874

 6  7  8  9  10  11  12  13  14  15  16  26  30  31  32  33  35 0
 6-311+G(2d,p)
 ****
 37  38 0
 6-311+G(2d,p)
 ****
 1  2  3  4  5  17  18  19  20  21  22  23  24  25 0
 3-21G
 ****
 27  28  29  34  36  39  40  41  42  43  44  45  46 0
 3-21G
 ****


