%nproc=1
%NoSave
%Mem=1900MB
#P OB98/GEN NMR

erre ene a

0 1
  C     -181.828    -415.555      23.882
  O     -183.233    -415.385      24.015
  P     -184.004    -414.233      23.205
  C     -185.412    -413.829      25.320
  O     -185.435    -414.107      23.925
  C     -186.809    -414.030      25.913
  O     -187.726    -413.146      25.223
  C     -187.401    -415.431      25.766
  O     -186.996    -416.356      26.766
  C     -188.889    -415.124      25.936
  O     -189.193    -414.964      27.334
  C     -189.027    -413.797      25.197
  N     -192.555    -415.885      22.130
  C     -192.425    -415.869      23.478
  N     -191.444    -415.305      24.211
  C     -190.560    -414.670      23.425
  C     -190.565    -414.595      22.044
  C     -191.626    -415.241      21.381
  N     -191.775    -415.238      20.014
  N     -189.476    -413.872      21.588
  C     -188.834    -413.513      22.686
  N     -189.452    -413.962      23.816
  O     -184.033    -414.426      21.728
  O     -183.268    -412.883      23.640
  H     -188.863    -415.755      27.798
  H     -183.482    -412.169      23.003
  H     -193.202    -416.376      24.030
  H     -187.927    -412.931      22.701
  H     -189.738    -413.119      25.689
  H     -189.529    -415.929      25.566
  H     -187.227    -415.840      24.758
  H     -186.776    -413.731      26.968
  H     -185.108    -412.787      25.456
  H     -192.628    -415.611      19.636
  H     -191.175    -414.624      19.476
  H     -184.680    -414.470      25.813
  P     -185.909    -417.463      26.343
  C     -187.336    -419.596      26.888
  O     -186.245    -418.765      27.231
  O     -184.501    -416.999      26.391
  O     -186.392    -417.892      24.880
  H     -187.240    -418.362      24.835
  H     -187.296    -420.494      27.513
  H     -187.288    -419.895      25.839
  H     -188.277    -419.080      27.076
  H     -181.507    -416.369      24.498
  H     -181.330    -414.659      24.187
  H     -181.589    -415.765      22.860

 3  4  5  6  7  8  9  10  11  12  22  25  29  30  31  32 0
 6-311+G(2d,p)
 ****
 33  36  37 0
 6-311+G(2d,p)
 ****
 1  2  13  14  15  16  17  18  19  20  21  23  24  26 0
 3-21G
 ****
 27  28  34  35  38  39  40  41  42  43  44  45  46  47  48 0
 3-21G
 ****


