%nproc=1
%NoSave
%Mem=1900MB
#P OB98/GEN NMR

erre ene a

0 1
  C     -325.313    -418.568     110.070
  O     -324.400    -418.625     111.146
  P     -324.776    -419.195     112.585
  C     -323.583    -421.412     111.939
  O     -324.736    -420.804     112.517
  C     -323.441    -422.900     112.300
  O     -323.118    -423.019     113.701
  C     -324.779    -423.620     112.100
  O     -325.160    -424.085     110.817
  C     -324.832    -424.673     113.205
  O     -324.443    -425.974     112.752
  C     -323.832    -424.146     114.243
  N     -323.033    -422.246     118.873
  C     -322.200    -422.227     117.772
  N     -320.928    -421.826     118.000
  N     -322.570    -422.602     116.570
  C     -323.843    -423.066     116.535
  C     -324.775    -423.115     117.552
  C     -324.359    -422.670     118.856
  O     -325.040    -422.731     119.880
  N     -325.936    -423.718     117.159
  C     -325.706    -424.074     115.910
  N     -324.440    -423.740     115.494
  O     -325.926    -418.541     113.292
  O     -323.446    -418.862     113.425
  H     -323.604    -425.877     112.270
  H     -323.716    -418.649     114.341
  H     -322.662    -422.016     119.788
  H     -326.414    -424.602     115.273
  H     -323.092    -424.905     114.482
  H     -325.864    -424.770     113.587
  H     -320.563    -421.681     118.926
  H     -325.567    -422.901     112.360
  H     -320.246    -421.973     117.261
  H     -322.614    -423.367     111.759
  H     -322.713    -420.845     112.275
  H     -323.633    -421.310     110.847
  P     -326.640    -424.409     110.321
  C     -327.249    -422.056     109.525
  O     -327.517    -423.083     110.461
  O     -327.243    -425.364     111.466
  O     -326.725    -425.082     108.986
  H     -327.976    -425.886     111.101
  H     -327.672    -421.117     109.892
  H     -327.718    -422.301     108.564
  H     -326.171    -421.934     109.386
  H     -324.829    -418.148     109.213
  H     -326.148    -417.957     110.343
  H     -325.654    -419.556     109.839

 3  4  5  6  7  8  9  10  11  12  23  26  30  31 0
 6-311+G(2d,p)
 ****
 33  35  36  37  38 0
 6-311+G(2d,p)
 ****
 1  2  13  14  15  16  17  18  19  20  21  22  24  25 0
 3-21G
 ****
 27  28  29  32  34  39  40  41  42  43  44  45  46  47  48  49 0
 3-21G
 ****


