%nproc=1
%NoSave
%Mem=1900MB
#P OB98/GEN NMR

erre ene a

0 1
  C      655.090     359.753    -787.485
  O      655.550     360.685    -786.509
  P      654.557     361.058    -785.307
  C      656.568     361.030    -783.616
  O      655.260     360.608    -783.935
  C      656.871     360.803    -782.122
  O      655.869     361.508    -781.347
  C      656.804     359.359    -781.644
  O      657.499     359.243    -780.404
  C      655.322     359.175    -781.407
  O      655.048     358.036    -780.579
  C      654.903     360.548    -780.835
  N      653.532     360.951    -781.193
  C      652.484     360.086    -780.932
  O      652.614     358.983    -780.408
  N      651.239     360.500    -781.317
  C      650.935     361.701    -781.896
  O      649.818     361.978    -782.320
  C      652.058     362.640    -782.033
  C      653.288     362.243    -781.685
  O      653.337     360.021    -785.487
  O      654.096     362.474    -785.323
  H      654.072     358.025    -780.453
  H      652.561     360.489    -785.853
  H      650.473     359.848    -781.201
  H      651.850     363.629    -782.421
  H      654.131     362.924    -781.796
  H      654.957     360.546    -779.728
  H      654.808     359.001    -782.363
  H      657.197     358.632    -782.365
  H      657.835     361.254    -781.879
  H      656.685     362.080    -783.876
  H      657.292     360.469    -784.214
  P      659.091     359.020    -780.454
  C      659.782     361.221    -779.307
  O      659.759     360.466    -780.505
  O      659.575     358.014    -781.445
  O      659.419     358.548    -778.944
  H      660.281     358.096    -778.933
  H      660.655     361.882    -779.314
  H      659.839     360.559    -778.439
  H      658.872     361.828    -779.246
  H      655.852     359.601    -788.221
  H      654.210     360.136    -787.957
  H      654.863     358.822    -787.010

 3  4  5  6  7  8  9  10  11  12  13  23  28  29  30  31  32 0
 6-311+G(2d,p)
 ****
 33  34 0
 6-311+G(2d,p)
 ****
 1  2  14  15  16  17  18  19  20  21  22  24  25  26  27 0
 3-21G
 ****
 35  36  37  38  39  40  41  42  43  44  45 0
 3-21G
 ****


