%nproc=1
%NoSave
%Mem=1900MB
#P OB98/GEN NMR

erre ene a

0 1
  C     1058.953      88.254     389.619
  O     1057.756      87.927     388.934
  H     1058.932      87.779     390.601
  H     1059.012      89.335     389.753
  H     1059.824      87.892     389.069
  P     1057.699      88.255     387.369
  C     1055.395      89.443     387.224
  O     1056.805      89.584     387.195
  C     1054.739      90.421     386.250
  O     1053.300      90.235     386.302
  C     1055.029      91.898     386.563
  O     1055.202      92.604     385.331
  C     1053.763      92.368     387.252
  O     1053.569      93.782     387.126
  C     1052.709      91.523     386.553
  N     1048.318      93.722     387.704
  C     1049.254      94.072     386.770
  N     1049.021      95.165     386.021
  N     1050.375      93.389     386.567
  C     1050.472      92.290     387.352
  C     1049.599      91.841     388.322
  C     1048.400      92.616     388.547
  O     1047.533      92.375     389.377
  N     1050.071      90.711     388.928
  C     1051.221      90.473     388.336
  N     1051.503      91.395     387.362
  O     1056.759      87.097     386.783
  O     1059.014      88.287     386.669
  H     1052.671      93.981     387.466
  H     1057.270      86.529     386.178
  H     1047.480      94.279     387.823
  H     1051.889      89.651     388.560
  H     1052.393      91.956     385.587
  H     1053.811      92.129     388.330
  H     1048.170      95.701     386.084
  H     1055.916      92.026     387.190
  H     1049.685      95.417     385.301
  H     1055.057      90.163     385.234
  H     1055.033      89.641     388.244
  H     1055.132      88.411     386.952
  P     1056.625      93.303     385.092
  C     1055.917      95.379     383.717
  O     1056.393      94.884     384.954
  O     1057.008      92.853     383.598
  O     1057.683      92.896     386.060
  H     1057.718      92.191     383.617
  H     1055.812      96.442     383.775
  H     1054.967      94.938     383.498
  H     1056.612      95.131     382.942

 6  7  8  9  10  11  12  13  14  15  26  29  33  34 0
 6-311+G(2d,p)
 ****
 36  38  39  40  41 0
 6-311+G(2d,p)
 ****
 1  2  3  4  5  16  17  18  19  20  21  22  23  24  25 0
 3-21G
 ****
 27  28  30  31  32  35  37  42  43  44  45  46  47 0
 3-21G
 ****
 48  49 0
 3-21G
 ****


