%nproc=1
%NoSave
%Mem=1900MB
#P OB98/GEN NMR

erre ene a

0 1
  C      695.693    -149.144     622.402
  O      696.438    -148.372     621.482
  H      694.794    -149.512     621.902
  H      695.395    -148.532     623.258
  H      696.285    -149.998     622.740
  P      697.778    -147.689     622.037
  C      698.907    -149.292     620.362
  O      698.942    -148.736     621.672
  C      700.321    -149.389     619.789
  O      700.738    -148.066     619.356
  C      701.360    -149.891     620.802
  O      702.321    -150.698     620.118
  C      702.030    -148.611     621.272
  O      703.332    -148.841     621.798
  C      701.988    -147.769     620.000
  N      705.278    -144.018     621.014
  C      705.455    -145.287     620.591
  N      704.515    -146.218     620.319
  C      703.283    -145.702     620.475
  C      702.945    -144.429     620.898
  C      704.014    -143.566     621.186
  N      703.846    -142.281     621.651
  N      701.571    -144.297     620.976
  C      701.090    -145.466     620.591
  N      702.090    -146.352     620.301
  O      697.740    -147.256     623.464
  O      698.020    -146.521     620.971
  H      703.612    -148.045     622.295
  H      697.917    -146.842     620.058
  H      706.488    -145.605     620.460
  H      700.037    -145.723     620.528
  H      702.803    -148.015     619.305
  H      701.426    -148.150     622.065
  H      700.921    -150.452     621.624
  H      700.297    -150.023     618.895
  H      698.288    -148.672     619.707
  H      704.669    -141.729     621.831
  H      702.914    -141.922     621.782
  H      698.453    -150.286     620.430
  P      702.804    -152.067     620.789
  C      701.793    -153.605     618.985
  O      701.793    -153.241     620.358
  O      703.105    -152.003     622.247
  O      704.122    -152.428     619.949
  H      704.811    -152.755     620.563
  H      701.084    -154.390     618.824
  H      702.769    -153.943     618.706
  H      701.526    -152.756     618.391

 6  7  8  9  10  11  12  13  14  15  25  28  32  33  34  35 0
 6-311+G(2d,p)
 ****
 36  39  40 0
 6-311+G(2d,p)
 ****
 1  2  3  4  5  16  17  18  19  20  21  22  23  24 0
 3-21G
 ****
 26  27  29  30  31  37  38  41  42  43  44  45  46  47 0
 3-21G
 ****
 48 0
 3-21G
 ****


