%nproc=1
%NoSave
%Mem=1900MB
#P OB98/GEN NMR

erre ene a

0 1
  C       99.869     268.531    -899.008
  O      100.253     269.529    -898.084
  H       98.903     268.111    -898.728
  H       99.782     268.987    -900.000
  H      100.624     267.743    -899.048
  P      100.402     269.075    -896.552
  C      102.965     269.431    -896.365
  O      101.893     268.496    -896.376
  C      103.782     269.276    -895.084
  O      102.929     269.612    -893.958
  C      104.343     267.862    -894.850
  O      105.767     267.914    -894.724
  C      103.757     267.437    -893.508
  O      104.690     266.740    -892.685
  C      103.327     268.757    -892.877
  N       99.775     271.173    -890.132
  C      100.457     271.545    -891.240
  N      101.312     270.817    -891.984
  C      101.413     269.561    -891.503
  C      100.764     269.033    -890.403
  C       99.920     269.901    -889.693
  N       99.264     269.536    -888.535
  N      101.128     267.712    -890.209
  C      102.013     267.467    -891.153
  N      102.234     268.563    -891.947
  O       99.482     267.767    -896.466
  O      100.004     270.099    -895.544
  H      105.219     266.178    -893.276
  H       98.903     267.823    -895.683
  H      100.305     272.571    -891.566
  H      102.562     266.538    -891.278
  H      104.149     269.249    -892.343
  H      102.897     266.784    -893.687
  H      104.059     267.156    -895.639
  H      104.595     270.008    -895.102
  H      102.562     270.452    -896.412
  H       98.775     270.258    -888.029
  H       99.455     268.633    -888.135
  H      103.590     269.263    -897.248
  P      106.605     266.798    -895.530
  C      108.341     268.377    -896.654
  O      107.227     267.512    -896.830
  O      105.458     265.862    -896.139
  O      107.560     266.027    -894.685
  H      105.800     264.961    -896.284
  H      108.639     268.773    -897.603
  H      109.154     267.829    -896.225
  H      108.069     269.181    -896.002

 6  7  8  9  10  11  12  13  14  15  25  28  32  33  34  35 0
 6-311+G(2d,p)
 ****
 36  39  40 0
 6-311+G(2d,p)
 ****
 1  2  3  4  5  16  17  18  19  20  21  22  23  24 0
 3-21G
 ****
 26  27  29  30  31  37  38  41  42  43  44  45  46  47  48 0
 3-21G
 ****


