%nproc=1
%NoSave
%Mem=1900MB
#P OB98/GEN NMR

erre ene a

0 1
  C     -300.289     349.988     427.645
  O     -299.756     348.881     426.939
  P     -298.177     348.604     427.071
  C     -298.078     346.123     426.306
  O     -297.823     347.482     425.981
  C     -298.180     345.287     425.028
  O     -299.349     345.655     424.269
  C     -297.004     345.462     424.077
  O     -295.882     344.681     424.454
  C     -297.599     344.935     422.781
  O     -297.569     343.497     422.771
  C     -299.052     345.436     422.866
  N     -299.479     347.461     418.248
  C     -299.461     346.135     418.631
  N     -299.508     345.220     417.639
  N     -299.408     345.739     419.874
  C     -299.364     346.769     420.764
  C     -299.379     348.122     420.505
  C     -299.420     348.540     419.122
  O     -299.390     349.699     418.716
  N     -299.323     348.852     421.659
  C     -299.278     347.949     422.621
  N     -299.257     346.668     422.123
  O     -298.053     347.823     428.461
  O     -297.327     349.831     427.036
  H     -298.098     343.211     421.998
  H     -297.128     347.843     428.776
  H     -299.517     347.713     417.276
  H     -299.251     348.172     423.680
  H     -299.762     344.694     422.492
  H     -297.055     345.271     421.893
  H     -299.485     345.456     416.657
  H     -296.744     346.521     423.953
  H     -299.430     344.241     417.889
  H     -298.286     344.231     425.325
  H     -299.016     346.053     426.862
  H     -297.272     345.745     426.944
  P     -294.480     345.460     424.602
  C     -293.634     343.844     426.452
  O     -293.448     344.365     425.154
  O     -294.731     346.417     425.851
  O     -294.061     346.214     423.382
  H     -294.154     347.207     425.804
  H     -293.020     342.943     426.562
  H     -294.683     343.577     426.618
  H     -293.323     344.575     427.203
  H     -301.342     350.051     427.467
  H     -299.816     350.887     427.309
  H     -300.111     349.862     428.693

 3  4  5  6  7  8  9  10  11  12  23  26  30  31 0
 6-311+G(2d,p)
 ****
 33  35  36  37  38 0
 6-311+G(2d,p)
 ****
 1  2  13  14  15  16  17  18  19  20  21  22  24  25 0
 3-21G
 ****
 27  28  29  32  34  39  40  41  42  43  44  45  46  47  48  49 0
 3-21G
 ****


