%nproc=1
%NoSave
%Mem=1900MB
#P OB98/GEN NMR

erre ene a

0 1
  C     -529.231    -552.556     -21.049
  O     -530.475    -552.022     -21.469
  H     -528.986    -552.149     -20.065
  H     -528.441    -552.267     -21.756
  H     -529.294    -553.644     -20.978
  P     -530.980    -552.456     -22.928
  C     -533.165    -553.674     -22.234
  O     -531.838    -553.803     -22.729
  C     -534.091    -554.656     -22.943
  O     -533.585    -556.008     -22.860
  C     -535.512    -554.682     -22.397
  O     -536.298    -553.637     -22.954
  C     -535.980    -556.064     -22.840
  O     -536.372    -556.060     -24.227
  C     -534.710    -556.903     -22.649
  N     -535.549    -561.169     -20.061
  C     -535.864    -560.839     -21.365
  N     -536.531    -561.769     -22.082
  N     -535.570    -559.683     -21.915
  C     -534.956    -558.831     -21.065
  C     -534.594    -559.030     -19.753
  C     -534.882    -560.331     -19.168
  O     -534.554    -560.712     -18.046
  N     -533.968    -557.924     -19.224
  C     -534.000    -557.041     -20.214
  N     -534.585    -557.547     -21.344
  O     -529.644    -552.978     -23.645
  O     -531.639    -551.384     -23.726
  H     -536.828    -556.899     -24.434
  H     -529.666    -552.704     -24.585
  H     -535.774    -562.078     -19.700
  H     -533.591    -556.038     -20.154
  H     -534.618    -557.705     -23.396
  H     -536.851    -556.402     -22.273
  H     -537.028    -562.531     -21.635
  H     -535.521    -554.639     -21.302
  H     -536.820    -561.502     -23.013
  H     -534.097    -554.384     -24.012
  H     -533.510    -552.649     -22.409
  H     -533.169    -553.880     -21.161
  P     -537.549    -553.100     -22.116
  C     -536.154    -551.526     -20.587
  O     -537.026    -552.653     -20.672
  O     -538.385    -554.435     -21.817
  O     -538.390    -552.087     -22.830
  H     -539.181    -554.466     -22.389
  H     -535.893    -551.353     -19.564
  H     -536.648    -550.662     -20.980
  H     -535.267    -551.718     -21.154

 6  7  8  9  10  11  12  13  14  15  26  29  33  34 0
 6-311+G(2d,p)
 ****
 36  38  39  40  41 0
 6-311+G(2d,p)
 ****
 1  2  3  4  5  16  17  18  19  20  21  22  23  24  25 0
 3-21G
 ****
 27  28  30  31  32  35  37  42  43  44  45  46  47 0
 3-21G
 ****
 48  49 0
 3-21G
 ****


