%nproc=1
%NoSave
%Mem=1900MB
#P OB98/GEN NMR

erre ene a

0 1
  C      -87.880    -619.060    -478.518
  O      -88.538    -618.647    -479.709
  P      -87.745    -617.646    -480.688
  C      -88.071    -619.099    -482.819
  O      -88.336    -617.865    -482.163
  C      -88.177    -618.950    -484.335
  O      -89.586    -618.822    -484.695
  C      -87.451    -617.726    -484.921
  O      -86.949    -618.106    -486.199
  C      -88.568    -616.709    -485.039
  O      -88.276    -615.612    -485.894
  C      -89.701    -617.628    -485.498
  N      -93.113    -614.348    -487.480
  C      -91.912    -614.795    -487.929
  N      -91.068    -615.670    -487.354
  C      -91.576    -616.105    -486.178
  C      -92.756    -615.737    -485.587
  C      -93.558    -614.809    -486.286
  N      -94.773    -614.349    -485.813
  N      -92.928    -616.390    -484.378
  C      -91.844    -617.131    -484.245
  N      -91.017    -617.014    -485.312
  O      -86.279    -618.306    -480.778
  O      -87.687    -616.220    -480.227
  H      -89.029    -614.993    -485.905
  H      -85.586    -617.631    -480.784
  H      -91.586    -614.390    -488.886
  H      -91.628    -617.756    -483.385
  H      -89.609    -617.907    -486.543
  H      -88.785    -616.287    -484.057
  H      -86.608    -617.391    -484.297
  H      -87.808    -619.877    -484.799
  H      -88.793    -619.847    -482.489
  H      -95.160    -613.551    -486.280
  H      -94.991    -614.546    -484.844
  H      -87.069    -619.455    -482.529
  P      -85.697    -617.315    -486.813
  C      -84.916    -619.572    -487.784
  O      -85.236    -618.217    -488.072
  O      -84.548    -617.659    -485.750
  O      -85.896    -615.857    -487.065
  H      -84.498    -618.617    -485.566
  H      -84.729    -620.092    -488.736
  H      -85.743    -620.058    -487.270
  H      -84.003    -619.617    -487.168
  H      -88.519    -619.719    -477.968
  H      -87.652    -618.202    -477.921
  H      -86.974    -619.570    -478.770

 3  4  5  6  7  8  9  10  11  12  22  25  29  30  31  32 0
 6-311+G(2d,p)
 ****
 33  36  37 0
 6-311+G(2d,p)
 ****
 1  2  13  14  15  16  17  18  19  20  21  23  24  26 0
 3-21G
 ****
 27  28  34  35  38  39  40  41  42  43  44  45  46  47  48 0
 3-21G
 ****


