%nproc=1
%NoSave
%Mem=1900MB
#P OB98/GEN NMR

erre ene a

0 1
  C      444.932     274.647    -183.972
  O      445.314     275.345    -182.802
  H      445.397     275.132    -184.834
  H      443.847     274.674    -184.099
  H      445.277     273.611    -183.926
  P      444.699     274.876    -181.398
  C      442.596     275.559    -180.056
  O      443.213     275.475    -181.334
  C      442.197     277.002    -179.746
  O      443.360     277.858    -179.755
  C      441.229     277.611    -180.753
  O      439.925     277.103    -180.560
  C      441.406     279.090    -180.452
  O      440.682     279.468    -179.274
  C      442.931     279.165    -180.203
  N      443.693     279.584    -181.377
  C      444.369     280.804    -181.268
  O      444.285     281.470    -180.236
  N      445.102     281.243    -182.348
  C      445.189     280.515    -183.413
  N      445.933     281.006    -184.439
  C      444.528     279.205    -183.550
  C      443.793     278.810    -182.514
  O      445.531     275.158    -180.186
  O      444.449     273.307    -181.592
  H      440.970     278.853    -178.568
  H      445.212     272.796    -181.260
  H      444.637     278.625    -184.457
  H      443.272     277.857    -182.532
  H      443.152     279.867    -179.387
  H      441.050     279.724    -181.264
  H      441.574     277.421    -181.775
  H      441.777     277.026    -178.732
  H      446.389     281.901    -184.290
  H      443.329     275.206    -179.322
  H      446.208     280.459    -185.244
  H      441.717     274.907    -180.007
  P      438.912     276.890    -181.785
  C      437.683     278.464    -183.402
  O      438.745     278.335    -182.470
  O      437.634     276.204    -181.443
  O      439.791     276.098    -182.865
  H      439.872     275.146    -182.612
  H      437.669     279.461    -183.791
  H      436.753     278.258    -182.914
  H      437.826     277.770    -184.204

 6  7  8  9  10  11  12  13  14  15  16  26  30  31  32  33  35 0
 6-311+G(2d,p)
 ****
 37  38 0
 6-311+G(2d,p)
 ****
 1  2  3  4  5  17  18  19  20  21  22  23  24  25 0
 3-21G
 ****
 27  28  29  34  36  39  40  41  42  43  44  45  46 0
 3-21G
 ****


