%nproc=1
%NoSave
%Mem=1900MB
#P OB98/GEN NMR

erre ene a

0 1
  C     -263.214     578.462     -76.176
  O     -262.439     578.503     -74.993
  H     -262.919     579.299     -76.813
  H     -264.277     578.555     -75.943
  H     -263.029     577.531     -76.720
  P     -262.711     577.395     -73.868
  C     -260.179     576.878     -73.832
  O     -261.327     577.225     -73.066
  C     -258.922     576.971     -72.967
  O     -258.631     578.347     -72.650
  C     -259.023     576.234     -71.634
  O     -258.775     574.847     -71.808
  C     -257.922     576.928     -70.848
  O     -256.636     576.433     -71.274
  C     -258.095     578.394     -71.301
  N     -259.090     580.067     -66.614
  C     -258.150     579.150     -67.045
  N     -257.390     578.576     -66.088
  N     -257.978     578.818     -68.296
  C     -258.857     579.417     -69.137
  C     -259.847     580.325     -68.826
  C     -259.981     580.736     -67.443
  O     -260.783     581.567     -67.021
  N     -260.601     580.643     -69.925
  C     -260.034     579.969     -70.913
  N     -258.981     579.200     -70.483
  O     -263.299     576.099     -74.342
  O     -263.655     578.133     -72.808
  H     -255.981     576.740     -70.619
  H     -264.598     577.980     -73.009
  H     -259.182     580.277     -65.630
  H     -260.348     580.002     -71.947
  H     -257.135     578.923     -71.350
  H     -257.995     576.760     -69.775
  H     -257.571     578.681     -65.100
  H     -259.982     576.421     -71.140
  H     -256.733     577.861     -66.380
  H     -258.080     576.593     -73.563
  H     -260.116     577.577     -74.671
  H     -260.275     575.861     -74.230
  P     -259.086     573.780     -70.649
  C     -259.958     571.977     -72.283
  O     -258.960     572.340     -71.346
  O     -260.366     574.012     -69.917
  O     -257.787     573.813     -69.719
  H     -257.816     574.532     -69.042
  H     -259.750     571.000     -72.665
  H     -259.964     572.681     -73.089
  H     -260.914     571.976     -71.803

 6  7  8  9  10  11  12  13  14  15  26  29  33  34 0
 6-311+G(2d,p)
 ****
 36  38  39  40  41 0
 6-311+G(2d,p)
 ****
 1  2  3  4  5  16  17  18  19  20  21  22  23  24  25 0
 3-21G
 ****
 27  28  30  31  32  35  37  42  43  44  45  46  47 0
 3-21G
 ****
 48  49 0
 3-21G
 ****


