%nproc=1
%NoSave
%Mem=1900MB
#P OB98/GEN NMR

erre ene a

0 1
  C       75.907     517.767    -654.605
  O       76.716     518.912    -654.417
  H       76.216     517.224    -655.503
  H       76.022     517.113    -653.734
  H       74.856     518.061    -654.690
  P       76.772     519.954    -655.637
  C       79.342     519.714    -655.892
  O       78.067     519.565    -656.506
  C       80.431     519.156    -656.802
  O       80.262     517.737    -656.972
  C       80.436     519.733    -658.214
  O       81.050     521.019    -658.263
  C       81.275     518.689    -658.942
  O       82.678     518.933    -658.693
  C       80.840     517.384    -658.263
  N       79.886     514.887    -662.637
  C       80.987     515.536    -662.201
  N       81.160     516.188    -661.030
  C       80.059     516.107    -660.262
  C       78.864     515.479    -660.587
  C       78.791     514.844    -661.841
  N       77.663     514.197    -662.287
  N       77.960     515.585    -659.552
  C       78.591     516.282    -658.626
  N       79.862     516.614    -659.013
  O       77.194     521.333    -654.935
  O       75.501     520.095    -656.411
  H       82.815     519.890    -658.817
  H       76.736     522.068    -655.389
  H       81.834     515.537    -662.874
  H       78.177     516.546    -657.660
  H       81.694     516.732    -658.047
  H       81.128     518.697    -660.020
  H       79.420     519.749    -658.640
  H       81.401     519.327    -656.311
  H       79.348     519.169    -654.946
  H       77.732     513.607    -663.100
  H       76.851     514.169    -661.681
  H       79.520     520.774    -655.690
  P       80.583     522.018    -659.441
  C       82.778     521.972    -660.822
  O       81.419     521.569    -660.735
  O       81.271     523.401    -659.021
  O       79.113     522.154    -659.609
  H       80.767     524.150    -659.401
  H       83.202     521.602    -661.732
  H       83.321     521.577    -659.989
  H       82.835     523.040    -660.811

 6  7  8  9  10  11  12  13  14  15  25  28  32  33  34  35 0
 6-311+G(2d,p)
 ****
 36  39  40 0
 6-311+G(2d,p)
 ****
 1  2  3  4  5  16  17  18  19  20  21  22  23  24 0
 3-21G
 ****
 26  27  29  30  31  37  38  41  42  43  44  45  46  47  48 0
 3-21G
 ****


