%nproc=1
%NoSave
%Mem=1900MB
#P OB98/GEN NMR

erre ene a

0 1
  C      438.199     397.901    1180.027
  O      439.336     398.473    1180.633
  H      438.503     397.001    1179.487
  H      437.749     398.602    1179.323
  H      437.475     397.618    1180.795
  P      439.108     399.832    1181.452
  C      438.219     398.293    1183.340
  O      437.993     399.456    1182.552
  C      437.893     398.570    1184.810
  O      438.938     399.331    1185.431
  C      436.610     399.361    1185.021
  O      435.481     398.499    1184.990
  C      436.841     399.916    1186.410
  O      436.530     398.915    1187.397
  C      438.353     400.208    1186.421
  N      439.203     404.862    1188.410
  C      438.665     403.749    1188.949
  N      438.417     402.555    1188.337
  C      438.803     402.579    1187.055
  C      439.362     403.661    1186.372
  C      439.572     404.830    1187.113
  N      440.122     405.976    1186.564
  N      439.620     403.314    1185.065
  C      439.278     402.051    1184.972
  N      438.739     401.580    1186.142
  O      438.837     401.054    1180.637
  O      440.446     399.896    1182.334
  H      436.566     399.347    1188.275
  H      440.685     399.005    1182.657
  H      438.390     403.814    1189.999
  H      439.408     401.428    1184.086
  H      438.812     399.946    1187.389
  H      436.209     400.781    1186.631
  H      436.517     400.195    1184.303
  H      437.855     397.599    1185.329
  H      439.271     397.969    1183.261
  H      440.057     406.830    1187.105
  H      440.269     405.997    1185.557
  H      437.587     397.493    1182.949
  P      434.035     399.040    1184.569
  C      434.606     399.262    1182.069
  O      434.284     399.960    1183.276
  O      433.268     399.678    1185.681
  O      433.281     397.761    1183.969
  H      432.329     397.919    1183.920
  H      434.750     399.967    1181.277
  H      433.805     398.600    1181.815
  H      435.504     398.697    1182.212

 6  7  8  9  10  11  12  13  14  15  25  28  32  33  34  35 0
 6-311+G(2d,p)
 ****
 36  39  40 0
 6-311+G(2d,p)
 ****
 1  2  3  4  5  16  17  18  19  20  21  22  23  24 0
 3-21G
 ****
 26  27  29  30  31  37  38  41  42  43  44  45  46  47 0
 3-21G
 ****
 48 0
 3-21G
 ****


