%nproc=1
%NoSave
%Mem=1900MB
#P OB98/GEN NMR

erre ene a

0 1
  C     -203.960    -290.109    -629.041
  O     -203.344    -289.518    -630.162
  H     -205.036    -289.911    -629.090
  H     -203.572    -289.677    -628.115
  H     -203.809    -291.193    -629.037
  P     -201.783    -289.803    -630.422
  C     -199.990    -287.944    -630.398
  O     -200.966    -288.661    -629.645
  C     -200.664    -286.831    -631.199
  O     -201.559    -286.077    -630.348
  C     -199.690    -285.808    -631.765
  O     -199.003    -286.315    -632.896
  C     -200.634    -284.645    -632.059
  O     -201.311    -284.831    -633.308
  C     -201.625    -284.739    -630.877
  N     -201.336    -283.742    -629.844
  C     -202.030    -282.536    -629.939
  O     -202.855    -282.295    -630.820
  N     -201.693    -281.589    -629.006
  C     -200.677    -281.680    -628.105
  O     -200.250    -280.716    -627.465
  C     -200.018    -282.992    -628.014
  C     -200.368    -283.948    -628.873
  O     -201.394    -290.004    -631.847
  O     -201.489    -291.110    -629.544
  H     -201.460    -291.891    -630.130
  H     -200.611    -284.923    -633.979
  H     -202.164    -280.699    -629.094
  H     -199.245    -283.126    -627.255
  H     -199.879    -284.916    -628.848
  H     -202.659    -284.583    -631.232
  H     -200.098    -283.698    -632.109
  H     -198.980    -285.498    -630.993
  H     -201.258    -287.302    -631.996
  H     -199.494    -288.640    -631.088
  H     -199.239    -287.529    -629.710
  P     -197.467    -285.901    -633.167
  C     -197.027    -284.424    -635.231
  O     -197.466    -284.461    -633.868
  O     -196.646    -286.943    -633.847
  O     -196.890    -285.585    -631.707
  H     -196.056    -286.070    -631.581
  H     -197.068    -283.418    -635.592
  H     -197.664    -285.043    -635.828
  H     -196.021    -284.783    -635.292

 6  7  8  9  10  11  12  13  14  15  16  27  31  32  33  34  35 0
 6-311+G(2d,p)
 ****
 36  37 0
 6-311+G(2d,p)
 ****
 1  2  3  4  5  17  18  19  20  21  22  23  24  25 0
 3-21G
 ****
 26  28  29  30  38  39  40  41  42  43  44  45 0
 3-21G
 ****


