%nproc=1
%NoSave
%Mem=1900MB
#P OB98/GEN NMR

erre ene a

0 1
  C      227.075    -950.092     212.675
  O      225.917    -950.754     213.190
  P      225.629    -952.317     213.043
  C      225.071    -953.142     215.463
  O      226.018    -953.029     214.420
  C      225.376    -952.234     216.672
  O      225.331    -950.839     216.248
  C      224.314    -952.391     217.749
  O      224.406    -953.452     218.681
  C      224.209    -951.015     218.389
  O      225.031    -950.882     219.549
  C      224.692    -950.069     217.279
  N      221.048    -946.567     218.091
  C      221.888    -947.174     219.002
  N      221.717    -946.855     220.296
  N      222.814    -948.042     218.671
  C      222.825    -948.343     217.346
  C      222.032    -947.816     216.354
  C      221.044    -946.817     216.726
  O      220.285    -946.242     215.961
  N      222.316    -948.380     215.135
  C      223.262    -949.253     215.393
  N      223.615    -949.264     216.722
  O      226.128    -952.948     211.784
  O      224.018    -952.398     213.020
  H      224.843    -951.627     220.145
  H      223.786    -953.151     212.439
  H      220.369    -945.894     218.400
  H      223.730    -949.897     214.664
  H      225.443    -949.369     217.663
  H      223.181    -950.818     218.717
  H      220.949    -946.294     220.635
  H      223.356    -952.542     217.240
  H      222.182    -947.460     220.988
  H      226.400    -952.400     217.033
  H      225.059    -954.189     215.774
  H      224.068    -952.926     215.086
  P      223.513    -954.779     218.689
  C      225.167    -956.744     218.812
  O      224.348    -955.941     217.970
  O      222.345    -954.475     217.638
  O      222.946    -955.147     220.032
  H      221.604    -955.104     217.769
  H      225.892    -957.273     218.197
  H      224.547    -957.479     219.335
  H      225.699    -956.125     219.550
  H      227.023    -949.049     212.909
  H      227.115    -950.218     211.613
  H      227.953    -950.514     213.117

 3  4  5  6  7  8  9  10  11  12  23  26  30  31 0
 6-311+G(2d,p)
 ****
 33  35  36  37  38 0
 6-311+G(2d,p)
 ****
 1  2  13  14  15  16  17  18  19  20  21  22  24  25 0
 3-21G
 ****
 27  28  29  32  34  39  40  41  42  43  44  45  46  47  48  49 0
 3-21G
 ****


