%nproc=1
%NoSave
%Mem=1900MB
#P OB98/GEN NMR

erre ene a

0 1
  C      458.017    -329.470     338.361
  O      456.902    -329.412     337.471
  P      456.423    -330.766     336.755
  C      454.492    -331.154     338.422
  O      455.681    -331.685     337.844
  C      453.249    -331.854     337.833
  O      453.217    -333.227     338.295
  C      451.905    -331.245     338.249
  O      451.364    -330.190     337.452
  C      450.970    -332.435     338.087
  O      450.564    -332.551     336.706
  C      451.841    -333.631     338.461
  N      450.284    -337.569     341.351
  C      450.402    -337.414     340.013
  N      450.829    -336.337     339.324
  C      451.157    -335.336     340.156
  C      451.094    -335.347     341.542
  C      450.629    -336.525     342.150
  N      450.497    -336.673     343.509
  N      451.512    -334.133     342.059
  C      451.807    -333.406     340.998
  N      451.620    -334.092     339.828
  O      457.449    -331.461     335.919
  O      455.199    -330.263     335.847
  H      449.915    -333.281     336.668
  H      455.207    -330.755     335.002
  H      450.118    -338.279     339.415
  H      452.147    -332.375     341.032
  H      451.672    -334.494     337.808
  H      450.052    -332.335     338.674
  H      451.932    -330.933     339.303
  H      453.332    -331.861     336.737
  H      454.436    -330.082     338.231
  H      450.115    -337.537     343.861
  H      450.695    -335.887     344.117
  H      454.565    -331.286     339.506
  P      451.450    -328.658     337.921
  C      453.363    -327.928     336.295
  O      452.953    -328.193     337.617
  O      450.991    -328.399     339.317
  O      450.602    -327.902     336.796
  H      451.020    -327.896     335.912
  H      454.335    -327.426     336.321
  H      452.646    -327.282     335.785
  H      453.468    -328.866     335.740
  H      458.211    -328.494     338.754
  H      458.879    -329.818     337.831
  H      457.797    -330.141     339.165

 3  4  5  6  7  8  9  10  11  12  22  25  29  30  31  32 0
 6-311+G(2d,p)
 ****
 33  36  37 0
 6-311+G(2d,p)
 ****
 1  2  13  14  15  16  17  18  19  20  21  23  24  26 0
 3-21G
 ****
 27  28  34  35  38  39  40  41  42  43  44  45  46  47  48 0
 3-21G
 ****


