%nproc=1
%NoSave
%Mem=1900MB
#P OB98/GEN NMR

erre ene a

0 1
  C       60.772    -437.234      29.562
  O       60.060    -437.985      30.549
  P       58.473    -437.725      30.619
  C       58.400    -435.931      32.498
  O       58.252    -436.210      31.106
  C       58.016    -434.483      32.812
  O       58.053    -434.248      34.254
  C       58.946    -433.442      32.162
  O       58.127    -432.316      31.821
  C       59.894    -433.104      33.304
  O       60.623    -431.906      33.083
  C       58.911    -433.091      34.465
  N       62.341    -430.862      37.527
  C       61.915    -430.577      36.264
  N       61.007    -431.222      35.517
  C       60.487    -432.261      36.197
  C       60.805    -432.673      37.482
  C       61.778    -431.920      38.163
  N       62.214    -432.211      39.439
  N       60.073    -433.807      37.830
  C       59.386    -434.099      36.739
  N       59.538    -433.147      35.766
  O       58.004    -438.610      31.872
  O       57.754    -438.086      29.363
  H       61.148    -431.985      32.259
  H       57.621    -439.453      31.568
  H       62.399    -429.715      35.804
  H       58.769    -434.977      36.602
  H       58.268    -432.198      34.459
  H       60.624    -433.913      33.419
  H       59.452    -433.809      31.259
  H       56.981    -434.320      32.480
  H       59.432    -436.111      32.805
  H       62.925    -431.615      39.838
  H       61.839    -432.999      39.938
  H       57.782    -436.640      33.071
  P       57.578    -432.182      30.322
  C       58.797    -429.948      29.966
  O       58.692    -431.301      29.561
  O       56.409    -431.104      30.530
  O       57.141    -433.449      29.662
  H       56.727    -430.322      31.021
  H       59.636    -429.488      29.432
  H       58.986    -429.891      31.042
  H       57.879    -429.402      29.715
  H       61.811    -437.484      29.604
  H       60.649    -436.188      29.752
  H       60.388    -437.467      28.591

 3  4  5  6  7  8  9  10  11  12  22  25  29  30  31  32 0
 6-311+G(2d,p)
 ****
 33  36  37 0
 6-311+G(2d,p)
 ****
 1  2  13  14  15  16  17  18  19  20  21  23  24  26 0
 3-21G
 ****
 27  28  34  35  38  39  40  41  42  43  44  45  46  47  48 0
 3-21G
 ****


