%nproc=1
%NoSave
%Mem=1900MB
#P OB98/GEN NMR

erre ene a

0 1
  C     -248.307      64.124     453.895
  O     -247.468      63.337     453.034
  P     -247.637      61.746     452.913
  C     -246.655      59.649     454.030
  O     -247.029      61.010     454.212
  C     -246.391      58.917     455.353
  O     -245.177      59.399     455.987
  C     -247.512      59.037     456.398
  O     -247.490      57.820     457.149
  C     -247.026      60.197     457.255
  O     -247.644      60.259     458.527
  C     -245.528      59.905     457.292
  N     -243.826      62.905     461.085
  C     -244.428      61.692     461.099
  N     -244.815      60.942     460.051
  C     -244.485      61.534     458.885
  C     -243.860      62.758     458.713
  C     -243.529      63.459     459.884
  N     -242.953      64.715     459.884
  N     -243.710      63.049     457.372
  C     -244.254      62.025     456.744
  N     -244.732      61.075     457.617
  O     -247.149      61.178     451.618
  O     -249.215      61.504     453.055
  H     -247.384      59.465     459.028
  H     -249.504      60.878     452.362
  H     -244.634      61.280     462.084
  H     -244.346      61.924     455.673
  H     -245.296      59.124     458.028
  H     -247.242      61.144     456.731
  H     -248.498      59.214     455.959
  H     -246.211      57.858     455.108
  H     -245.749      59.619     453.413
  H     -242.840      65.181     460.767
  H     -242.848      65.202     459.004
  H     -247.450      59.135     453.477
  P     -248.837      57.055     457.545
  C     -249.984      56.604     459.793
  O     -249.196      57.507     459.043
  O     -248.807      55.570     457.340
  O     -249.977      57.747     456.664
  H     -250.755      57.164     456.618
  H     -251.024      56.654     459.464
  H     -249.927      56.873     460.850
  H     -249.616      55.575     459.679
  H     -248.025      65.154     453.824
  H     -248.192      63.792     454.906
  H     -249.329      64.012     453.597

 3  4  5  6  7  8  9  10  11  12  22  25  29  30  31  32 0
 6-311+G(2d,p)
 ****
 33  36  37 0
 6-311+G(2d,p)
 ****
 1  2  13  14  15  16  17  18  19  20  21  23  24  26 0
 3-21G
 ****
 27  28  34  35  38  39  40  41  42  43  44  45  46  47  48 0
 3-21G
 ****


