%nproc=1
%NoSave
%Mem=1900MB
#P OB98/GEN NMR

erre ene a

0 1
  C      469.278     239.883      46.580
  O      469.500     239.305      45.289
  P      468.202     238.893      44.436
  C      468.795     240.622      42.558
  O      467.862     240.172      43.528
  C      468.056     241.185      41.344
  O      467.377     240.126      40.624
  C      466.975     242.194      41.689
  O      467.533     243.448      42.056
  C      466.168     242.211      40.396
  O      466.813     243.042      39.416
  C      466.244     240.731      39.956
  N      465.013     239.997      40.224
  C      463.936     240.299      39.395
  O      463.987     241.148      38.506
  N      462.783     239.605      39.641
  C      462.597     238.680      40.627
  O      461.543     238.079      40.788
  C      463.757     238.437      41.498
  C      464.896     239.094      41.262
  O      467.073     238.894      45.568
  O      468.370     237.602      43.705
  H      467.212     239.581      46.242
  H      467.668     242.613      39.212
  H      461.993     239.801      39.043
  H      463.636     237.729      42.311
  H      465.759     238.931      41.896
  H      466.452     240.665      38.882
  H      465.156     242.593      40.536
  H      466.353     241.814      42.504
  H      468.795     241.636      40.674
  H      469.429     239.789      42.238
  H      469.443     241.376      43.014
  P      467.276     243.943      43.563
  C      469.699     244.513      44.357
  O      468.609     243.619      44.382
  O      466.230     242.844      44.074
  O      466.786     245.351      43.656
  H      466.472     241.941      43.819
  H      470.344     244.311      45.213
  H      469.363     245.554      44.410
  H      470.276     244.359      43.439
  H      470.219     240.109      47.036
  H      468.741     239.190      47.193
  H      468.708     240.782      46.475

 3  4  5  6  7  8  9  10  11  12  13  24  28  29  30  31  32 0
 6-311+G(2d,p)
 ****
 33  34 0
 6-311+G(2d,p)
 ****
 1  2  14  15  16  17  18  19  20  21  22  23  25  26  27 0
 3-21G
 ****
 35  36  37  38  39  40  41  42  43  44  45 0
 3-21G
 ****


