%nproc=1
%NoSave
%Mem=1900MB
#P OB98/GEN NMR

erre ene a

0 1
  C     1126.855    -349.919    -709.195
  O     1127.900    -350.876    -709.069
  P     1128.666    -351.346    -710.398
  C     1130.793    -349.862    -710.312
  O     1129.522    -350.084    -710.916
  C     1131.852    -349.512    -711.357
  O     1131.722    -350.433    -712.482
  C     1131.738    -348.093    -711.930
  O     1133.064    -347.649    -712.231
  C     1130.979    -348.301    -713.229
  O     1131.168    -347.222    -714.139
  C     1131.565    -349.638    -713.680
  N     1129.679    -349.556    -718.431
  C     1130.539    -348.739    -717.786
  N     1131.004    -348.824    -716.526
  C     1130.474    -349.891    -715.896
  C     1129.549    -350.790    -716.404
  C     1129.153    -350.600    -717.745
  N     1128.276    -351.434    -718.401
  N     1129.218    -351.732    -715.459
  C     1129.920    -351.408    -714.399
  N     1130.711    -350.322    -714.627
  O     1127.482    -351.446    -711.469
  O     1129.409    -352.630    -710.283
  H     1132.084    -347.254    -714.471
  H     1127.332    -352.382    -711.709
  H     1130.928    -347.911    -718.375
  H     1129.894    -351.923    -713.447
  H     1132.555    -349.522    -714.133
  H     1129.903    -348.382    -713.019
  H     1131.245    -347.382    -711.258
  H     1132.841    -349.675    -710.916
  H     1131.101    -350.776    -709.787
  H     1128.149    -351.314    -719.390
  H     1128.028    -352.315    -717.965
  H     1130.709    -349.058    -709.576
  P     1133.402    -346.101    -711.956
  C     1133.811    -346.002    -709.396
  O     1132.905    -345.781    -710.473
  O     1132.353    -345.338    -712.880
  O     1134.808    -345.718    -712.278
  H     1132.711    -344.466    -713.141
  H     1133.611    -345.254    -708.618
  H     1134.844    -345.930    -709.716
  H     1133.626    -347.003    -708.981
  H     1126.445    -349.709    -708.229
  H     1126.088    -350.310    -709.831
  H     1127.246    -349.018    -709.620

 3  4  5  6  7  8  9  10  11  12  22  25  29  30  31  32 0
 6-311+G(2d,p)
 ****
 33  36  37 0
 6-311+G(2d,p)
 ****
 1  2  13  14  15  16  17  18  19  20  21  23  24  26 0
 3-21G
 ****
 27  28  34  35  38  39  40  41  42  43  44  45  46  47  48 0
 3-21G
 ****


