%nproc=1
%NoSave
%Mem=1900MB
#P OB98/GEN NMR

erre ene a

0 1
  C     -892.440      24.972    -539.269
  O     -893.800      24.618    -539.464
  H     -891.910      24.119    -538.847
  H     -892.370      25.814    -538.573
  H     -891.970      25.237    -540.224
  P     -894.810      25.723    -540.046
  C     -896.520      27.351    -539.002
  O     -895.440      26.457    -538.764
  C     -897.380      27.482    -537.749
  O     -898.200      26.306    -537.562
  C     -896.580      27.659    -536.449
  O     -896.180      29.016    -536.298
  C     -897.630      27.236    -535.429
  O     -898.580      28.307    -535.242
  C     -898.300      26.051    -536.138
  N     -898.220      22.085    -532.965
  C     -898.870      23.294    -532.860
  N     -899.580      23.496    -531.707
  N     -898.820      24.244    -533.761
  C     -898.040      23.928    -534.805
  C     -897.330      22.771    -535.035
  C     -897.440      21.703    -534.048
  O     -896.900      20.595    -534.133
  N     -896.560      22.846    -536.167
  C     -896.830      24.037    -536.658
  N     -897.720      24.744    -535.863
  O     -895.830      25.231    -541.025
  O     -893.850      26.840    -540.668
  H     -899.170      28.035    -534.510
  H     -893.690      26.669    -541.627
  H     -898.290      21.394    -532.227
  H     -896.430      24.448    -537.576
  H     -899.370      25.977    -535.898
  H     -897.190      27.008    -534.448
  H     -899.530      22.873    -530.920
  H     -895.740      26.969    -536.410
  H     -900.000      24.401    -531.572
  H     -898.070      28.328    -537.897
  H     -897.110      26.949    -539.835
  H     -896.140      28.338    -539.294
  P     -894.720      29.391    -535.755
  C     -893.870      30.362    -533.509
  O     -894.890      29.643    -534.177
  O     -894.040      30.505    -536.499
  O     -893.910      28.000    -535.795
  H     -893.520      27.801    -536.675
  H     -894.117      30.452    -532.472
  H     -893.780      31.337    -533.940
  H     -892.941      29.841    -533.610

 6  7  8  9  10  11  12  13  14  15  26  29  33  34 0
 6-311+G(2d,p)
 ****
 36  38  39  40  41 0
 6-311+G(2d,p)
 ****
 1  2  3  4  5  16  17  18  19  20  21  22  23  24  25 0
 3-21G
 ****
 27  28  30  31  32  35  37  42  43  44  45  46  47 0
 3-21G
 ****
 48  49 0
 3-21G
 ****


