%nproc=1
%NoSave
%Mem=1900MB
#P OB98/GEN NMR

erre ene a

0 1
  C     -321.721    -899.000     567.106
  O     -322.107    -898.170     566.019
  H     -322.563    -899.060     567.808
  H     -320.857    -898.570     567.625
  H     -321.486    -900.000     566.747
  P     -320.971    -897.700     564.992
  C     -319.341    -895.700     564.905
  O     -320.249    -896.440     565.707
  C     -319.656    -894.210     564.914
  O     -320.808    -893.910     564.094
  C     -320.038    -893.670     566.300
  O     -318.986    -893.680     567.238
  C     -320.725    -892.350     565.948
  O     -319.785    -891.300     565.721
  C     -321.430    -892.720     564.623
  N     -322.864    -892.900     564.789
  C     -323.570    -891.810     565.326
  O     -323.014    -890.750     565.658
  N     -324.906    -891.960     565.474
  C     -325.611    -893.110     565.203
  O     -326.826    -893.200     565.386
  C     -324.826    -894.240     564.685
  C     -323.517    -894.080     564.498
  O     -321.442    -897.410     563.595
  O     -319.862    -898.840     565.082
  H     -319.201    -891.270     566.495
  H     -319.233    -898.790     564.321
  H     -325.433    -891.190     565.851
  H     -325.355    -895.160     564.472
  H     -322.908    -894.910     564.115
  H     -321.268    -891.930     563.867
  H     -321.414    -892.020     566.728
  H     -320.830    -894.320     566.721
  H     -318.799    -893.660     564.508
  H     -319.416    -896.070     563.870
  H     -318.316    -895.870     565.262
  P     -319.150    -894.160     568.750
  C     -320.480    -893.390     570.864
  O     -320.263    -893.260     569.468
  O     -317.882    -894.440     569.500
  O     -319.927    -895.580     568.553
  H     -319.605    -896.180     569.277
  H     -321.254    -892.717     571.169
  H     -319.577    -893.156     571.389
  H     -320.773    -894.395     571.087

 6  7  8  9  10  11  12  13  14  15  16  26  31  32  33  34  35 0
 6-311+G(2d,p)
 ****
 36  37 0
 6-311+G(2d,p)
 ****
 1  2  3  4  5  17  18  19  20  21  22  23  24  25 0
 3-21G
 ****
 27  28  29  30  38  39  40  41  42  43  44  45 0
 3-21G
 ****


