%nproc=1
%NoSave
%Mem=1900MB
#P OB98/GEN NMR

erre ene a

0 1
  C      129.056     -11.311     -57.670
  O      129.906     -10.198     -57.379
  P      130.111      -9.809     -55.838
  C      128.199      -8.073     -55.507
  O      128.694      -9.378     -55.228
  C      126.799      -7.904     -54.915
  O      125.829      -8.681     -55.641
  C      126.695      -8.381     -53.476
  O      127.246      -7.423     -52.593
  C      125.193      -8.577     -53.314
  O      124.548      -7.380     -52.850
  C      124.730      -8.930     -54.746
  N      124.255     -10.298     -54.860
  C      122.906     -10.505     -54.554
  O      122.201      -9.561     -54.190
  N      122.399     -11.776     -54.643
  C      123.178     -12.757     -54.983
  N      122.620     -13.995     -55.049
  C      124.612     -12.585     -55.287
  C      125.081     -11.342     -55.205
  O      130.917      -8.428     -55.912
  O      130.853     -10.837     -55.048
  H      124.848      -7.260     -51.926
  H      131.523      -8.349     -55.153
  H      125.222     -13.434     -55.557
  H      126.124     -11.123     -55.411
  H      123.917      -8.264     -55.058
  H      124.969      -9.359     -52.582
  H      127.209      -9.344     -53.364
  H      126.520      -6.843     -54.979
  H      121.634     -14.077     -54.831
  H      128.171      -7.904     -56.584
  H      123.134     -14.829     -55.295
  H      128.894      -7.336     -55.090
  P      128.564      -7.828     -51.782
  C      127.117      -8.876     -49.939
  O      128.136      -9.094     -50.895
  O      128.648      -6.667     -50.679
  O      129.833      -7.955     -52.555
  H      129.475      -6.747     -50.171
  H      126.780      -9.843     -49.560
  H      126.267      -8.361     -50.393
  H      127.509      -8.288     -49.105
  H      129.010     -11.457     -58.729
  H      128.073     -11.117     -57.293
  H      129.449     -12.191     -57.205

 3  4  5  6  7  8  9  10  11  12  13  21  23  27  28  29  30  32 0
 6-311+G(2d,p)
 ****
 34  35 0
 6-311+G(2d,p)
 ****
 1  2  14  15  16  17  18  19  20  22  24  25  26 0
 3-21G
 ****
 31  33  36  37  38  39  40  41  42  43  44  45  46 0
 3-21G
 ****


