%nproc=1
%NoSave
%Mem=1900MB
#P OB98/GEN NMR

erre ene a

0 1
  C     -570.085    -401.515      14.276
  O     -568.994    -401.488      15.172
  H     -570.107    -402.491      13.780
  H     -569.975    -400.742      13.508
  H     -571.030    -401.378      14.813
  P     -568.740    -400.153      16.025
  C     -568.807    -397.653      15.339
  O     -568.622    -398.989      14.913
  C     -569.260    -396.786      14.167
  O     -570.488    -397.282      13.593
  C     -569.565    -395.333      14.522
  O     -568.409    -394.542      14.768
  C     -570.291    -394.905      13.259
  O     -569.349    -394.694      12.202
  C     -571.177    -396.143      12.992
  N     -572.521    -396.012      13.555
  C     -573.390    -395.122      12.914
  O     -573.012    -394.479      11.926
  N     -574.655    -394.940      13.413
  C     -575.016    -395.580      14.490
  N     -576.288    -395.363      14.950
  C     -574.145    -396.513      15.205
  C     -572.914    -396.684      14.696
  O     -567.622    -400.208      17.013
  O     -570.162    -399.815      16.685
  H     -569.813    -394.182      11.510
  H     -570.053    -399.000      17.234
  H     -574.479    -397.003      16.113
  H     -572.213    -397.356      15.172
  H     -571.260    -396.336      11.916
  H     -570.854    -393.970      13.382
  H     -570.261    -395.273      15.369
  H     -568.484    -396.854      13.389
  H     -576.866    -394.711      14.432
  H     -567.858    -397.290      15.752
  H     -576.629    -395.754      15.808
  H     -569.571    -397.615      16.115
  P     -568.624    -393.177      15.580
  C     -570.211    -391.147      15.153
  O     -569.432    -392.199      14.613
  O     -567.149    -392.551      15.630
  O     -569.217    -393.328      16.950
  H     -566.718    -392.741      16.485
  H     -570.675    -390.603      14.358
  H     -569.581    -390.489      15.715
  H     -570.965    -391.554      15.794

 6  7  8  9  10  11  12  13  14  15  16  26  30  31  32  33  35 0
 6-311+G(2d,p)
 ****
 37  38 0
 6-311+G(2d,p)
 ****
 1  2  3  4  5  17  18  19  20  21  22  23  24  25 0
 3-21G
 ****
 27  28  29  34  36  39  40  41  42  43  44  45  46 0
 3-21G
 ****


