%nproc=1
%NoSave
%Mem=1900MB
#P OB98/GEN NMR

erre ene a

0 1
  C      203.840    -203.655    -161.884
  O      204.358    -202.712    -162.832
  P      203.382    -202.224    -164.008
  C      202.579    -200.038    -162.850
  O      203.271    -200.622    -163.950
  C      202.420    -198.517    -163.032
  O      203.712    -197.876    -163.193
  C      201.587    -198.135    -164.267
  O      200.912    -196.899    -163.985
  C      202.653    -197.888    -165.318
  O      202.140    -197.111    -166.408
  C      203.725    -197.203    -164.473
  N      207.675    -194.479    -166.027
  C      206.467    -194.068    -165.477
  N      206.317    -192.744    -165.288
  N      205.508    -194.894    -165.148
  C      205.829    -196.196    -165.367
  C      206.975    -196.726    -165.906
  C      208.021    -195.802    -166.287
  O      209.112    -196.096    -166.790
  N      206.915    -198.094    -165.984
  C      205.720    -198.391    -165.504
  N      205.042    -197.281    -165.077
  O      201.938    -202.713    -163.493
  O      203.710    -202.802    -165.346
  H      201.700    -196.323    -166.021
  H      201.638    -203.470    -164.044
  H      208.379    -193.799    -166.275
  H      205.306    -199.390    -165.434
  H      203.507    -196.138    -164.296
  H      203.008    -198.845    -165.718
  H      207.034    -192.059    -165.474
  H      200.849    -198.882    -164.576
  H      205.453    -192.423    -164.856
  H      201.954    -198.110    -162.130
  H      203.120    -200.235    -161.921
  H      201.606    -200.527    -162.740
  P      199.357    -196.812    -164.365
  C      197.922    -196.889    -162.204
  O      198.636    -196.095    -163.127
  O      198.858    -198.338    -164.261
  O      199.074    -196.224    -165.709
  H      198.079    -198.477    -164.825
  H      198.517    -197.013    -161.293
  H      197.680    -197.878    -162.612
  H      196.975    -196.387    -161.956
  H      204.596    -203.888    -161.163
  H      203.546    -204.549    -162.394
  H      202.992    -203.232    -161.388

 3  4  5  6  7  8  9  10  11  12  23  26  30  31 0
 6-311+G(2d,p)
 ****
 33  35  36  37  38 0
 6-311+G(2d,p)
 ****
 1  2  13  14  15  16  17  18  19  20  21  22  24  25 0
 3-21G
 ****
 27  28  29  32  34  39  40  41  42  43  44  45  46  47  48  49 0
 3-21G
 ****


