%nproc=1
%NoSave
%Mem=1900MB
#P OB98/GEN NMR

erre ene a

0 1
  C     -472.266      48.390     295.131
  O     -472.472      49.511     295.972
  H     -472.095      48.745     294.111
  H     -473.151      47.749     295.138
  H     -471.390      47.825     295.460
  P     -472.723      49.204     297.528
  C     -474.825      50.649     298.044
  O     -473.413      50.518     298.142
  C     -475.260      51.993     298.612
  O     -474.828      52.098     299.992
  C     -474.649      53.190     297.905
  O     -475.297      53.485     296.681
  C     -474.817      54.278     298.961
  O     -476.130      54.850     298.918
  C     -474.614      53.502     300.267
  N     -471.701      56.671     303.020
  C     -473.013      56.696     302.708
  N     -473.721      55.807     301.978
  C     -472.931      54.790     301.581
  C     -471.580      54.626     301.826
  C     -470.954      55.627     302.587
  N     -469.611      55.622     302.888
  N     -471.107      53.478     301.215
  C     -472.157      52.953     300.625
  N     -473.287      53.705     300.820
  O     -471.244      49.225     298.143
  O     -473.427      47.919     297.816
  H     -476.725      54.201     299.334
  H     -470.923      48.310     298.251
  H     -473.575      57.547     303.086
  H     -472.157      52.036     300.042
  H     -475.335      53.796     301.042
  H     -474.099      55.079     298.810
  H     -473.572      53.026     297.738
  H     -476.357      52.046     298.596
  H     -475.308      49.841     298.608
  H     -475.116      50.566     296.988
  H     -469.215      56.404     303.378
  H     -469.021      54.904     302.473
  P     -474.386      53.735     295.390
  C     -476.268      55.454     294.829
  O     -475.266      54.570     294.344
  O     -474.266      52.287     294.717
  O     -473.046      54.325     295.683
  H     -473.380      52.177     294.322
  H     -476.756      55.927     294.003
  H     -475.816      56.199     295.450
  H     -476.986      54.902     295.399

 6  7  8  9  10  11  12  13  14  15  25  28  32  33  34  35 0
 6-311+G(2d,p)
 ****
 36  37  40 0
 6-311+G(2d,p)
 ****
 1  2  3  4  5  16  17  18  19  20  21  22  23  24 0
 3-21G
 ****
 26  27  29  30  31  38  39 41  42  43  44  45  46  47  48 0
 3-21G
 ****


