%nproc=1
%NoSave
%Mem=1900MB
#P OB98/GEN NMR

erre ene a

0 1
  C     1180.897     796.562    -798.305
  O     1181.948     795.628    -798.157
  H     1180.112     796.149    -798.939
  H     1180.479     796.781    -797.321
  H     1181.277     797.487    -798.744
  P     1182.712     795.179    -799.493
  C     1184.553     794.505    -797.784
  O     1183.896     794.205    -799.010
  C     1184.480     793.301    -796.859
  O     1184.888     792.101    -797.563
  C     1185.393     793.390    -795.635
  O     1184.827     794.163    -794.601
  C     1185.479     791.914    -795.247
  O     1184.269     791.529    -794.566
  C     1185.569     791.232    -796.610
  N     1188.506     788.456    -799.741
  C     1187.183     788.427    -799.486
  N     1186.476     789.198    -798.636
  C     1187.281     790.072    -798.007
  C     1188.648     790.211    -798.150
  C     1189.268     789.352    -799.072
  N     1190.624     789.357    -799.316
  N     1189.142     791.183    -797.301
  C     1188.067     791.652    -796.688
  N     1186.923     791.012    -797.066
  O     1183.490     796.497    -799.947
  O     1181.857     794.622    -800.576
  H     1183.524     791.752    -795.147
  H     1183.724     796.444    -800.894
  H     1186.613     787.691    -800.041
  H     1188.079     792.453    -795.963
  H     1185.046     790.266    -796.628
  H     1186.305     791.701    -794.570
  H     1186.395     793.746    -795.911
  H     1183.433     793.161    -796.552
  H     1184.043     795.362    -797.305
  H     1190.997     788.587    -799.853
  H     1191.224     789.915    -798.718
  H     1185.592     794.776    -797.979
  P     1185.830     794.894    -793.584
  C     1184.131     796.777    -793.024
  O     1184.900     795.688    -792.549
  O     1186.476     796.051    -794.475
  O     1186.868     793.987    -792.983
  H     1187.359     796.298    -794.149
  H     1183.570     797.197    -792.216
  H     1183.460     796.435    -793.784
  H     1184.782     797.522    -793.431

 6  7  8  9  10  11  12  13  14  15  25  28  32  33  34  35 0
 6-311+G(2d,p)
 ****
 36  39  40 0
 6-311+G(2d,p)
 ****
 1  2  3  4  5  16  17  18  19  20  21  22  23  24 0
 3-21G
 ****
 26  27  29  30  31  37  38  41  42  43  44  45  46  47 0
 3-21G
 ****
 48 0
 3-21G
 ****


