%nproc=1
%NoSave
%Mem=1900MB
#P OB98/GEN NMR

erre ene a

0 1
  C     -756.957     765.406    -110.578
  O     -756.520     766.673    -111.012
  H     -756.778     765.286    -109.505
  H     -758.029     765.321    -110.766
  H     -756.443     764.611    -111.135
  P     -754.976     767.031    -110.727
  C     -755.283     767.658    -108.229
  O     -754.724     766.744    -109.164
  C     -754.390     767.771    -107.004
  O     -754.090     766.458    -106.484
  C     -753.030     768.422    -107.260
  O     -753.126     769.839    -107.331
  C     -752.266     767.963    -106.019
  O     -752.602     768.810    -104.907
  C     -752.813     766.552    -105.792
  N     -748.410     764.006    -105.061
  C     -748.994     765.011    -104.372
  N     -750.153     765.646    -104.627
  C     -750.747     765.134    -105.728
  C     -750.264     764.104    -106.529
  C     -749.037     763.536    -106.166
  N     -748.438     762.520    -106.887
  N     -751.155     763.842    -107.555
  C     -752.142     764.697    -107.376
  N     -751.940     765.496    -106.285
  O     -754.933     768.629    -110.819
  O     -753.990     766.403    -111.661
  H     -752.681     769.722    -105.261
  H     -754.084     768.906    -111.213
  H     -748.453     765.353    -103.483
  H     -753.028     764.750    -108.004
  H     -753.008     766.356    -104.734
  H     -751.181     768.017    -106.149
  H     -752.554     768.005    -108.152
  H     -754.946     768.319    -106.225
  H     -756.276     767.304    -107.920
  H     -747.675     762.026    -106.471
  H     -748.928     762.169    -107.706
  H     -755.392     768.636    -108.707
  P     -752.416     770.567    -108.562
  C     -750.613     771.780    -107.155
  O     -750.887     770.785    -108.127
  O     -753.027     772.048    -108.512
  O     -752.638     769.917    -109.892
  H     -752.991     772.452    -109.405
  H     -749.560     771.813    -106.965
  H     -751.132     771.546    -106.249
  H     -750.940     772.732    -107.517

 6  7  8  9  10  11  12  13  14  15  25  28  32  33  34  35 0
 6-311+G(2d,p)
 ****
 36  39  40 0
 6-311+G(2d,p)
 ****
 1  2  3  4  5  16  17  18  19  20  21  22  23  24 0
 3-21G
 ****
 26  27  29  30  31  37  38  41  42  43  44  45  46  47  48 0
 3-21G
 ****


