%nproc=1
%NoSave
%Mem=1900MB
#P OB98/GEN NMR

erre ene a

0 1
  C     -314.004     252.329    -363.080
  O     -313.352     251.661    -362.006
  P     -312.264     250.518    -362.299
  C     -311.705     248.243    -361.230
  O     -312.709     249.235    -361.434
  C     -312.174     247.207    -360.209
  O     -312.391     247.869    -358.936
  C     -313.486     246.525    -360.599
  O     -313.429     245.158    -360.171
  C     -314.540     247.237    -359.774
  O     -315.682     246.394    -359.540
  C     -313.748     247.619    -358.521
  N     -317.646     249.650    -355.867
  C     -317.436     248.401    -356.345
  N     -316.393     247.939    -357.065
  C     -315.472     248.903    -357.228
  C     -315.539     250.213    -356.790
  C     -316.691     250.586    -356.080
  N     -316.896     251.855    -355.579
  N     -314.411     250.910    -357.174
  C     -313.668     250.037    -357.810
  N     -314.261     248.799    -357.860
  O     -310.844     250.934    -362.104
  O     -312.551     250.059    -363.800
  H     -315.342     245.545    -359.186
  H     -311.713     249.876    -364.269
  H     -318.224     247.684    -356.131
  H     -312.707     250.234    -358.256
  H     -313.726     246.794    -357.793
  H     -314.887     248.133    -360.313
  H     -313.692     246.572    -361.678
  H     -311.377     246.467    -360.070
  H     -310.803     248.736    -360.857
  H     -317.692     251.992    -354.985
  H     -316.115     252.503    -355.591
  H     -311.464     247.765    -362.189
  P     -314.572     244.192    -360.780
  C     -316.343     242.801    -359.465
  O     -315.635     244.020    -359.593
  O     -313.988     242.940    -361.364
  O     -315.270     245.162    -361.840
  H     -315.144     246.109    -361.600
  H     -317.042     242.893    -358.632
  H     -315.649     241.979    -359.257
  H     -316.899     242.586    -360.383
  H     -314.689     253.051    -362.687
  H     -314.538     251.616    -363.672
  H     -313.275     252.822    -363.688

 3  4  5  6  7  8  9  10  11  12  22  25  29  30  31  32 0
 6-311+G(2d,p)
 ****
 33  36  37 0
 6-311+G(2d,p)
 ****
 1  2  13  14  15  16  17  18  19  20  21  23  24  26 0
 3-21G
 ****
 27  28  34  35  38  39  40  41  42  43  44  45  46  47  48 0
 3-21G
 ****


