%nproc=1
%NoSave
%Mem=1900MB
#P OB98/GEN NMR

erre ene a

0 1
  C      -62.953     -18.160     357.251
  O      -64.324     -17.945     356.963
  P      -64.730     -16.606     356.178
  C      -64.511     -17.553     353.771
  O      -64.019     -16.633     354.742
  C      -64.617     -16.879     352.398
  O      -65.364     -15.634     352.523
  C      -63.263     -16.536     351.774
  O      -63.346     -16.668     350.347
  C      -63.096     -15.064     352.083
  O      -62.196     -14.434     351.171
  C      -64.544     -14.580     351.975
  N      -64.881      -9.558     351.521
  C      -64.910     -10.532     350.539
  N      -64.952     -10.101     349.265
  N      -64.917     -11.817     350.792
  C      -64.863     -12.101     352.118
  C      -64.844     -11.226     353.183
  C      -64.831      -9.808     352.888
  O      -64.781      -8.895     353.700
  N      -64.836     -11.888     354.379
  C      -64.798     -13.167     354.049
  N      -64.781     -13.345     352.690
  O      -63.928     -15.472     356.974
  O      -66.195     -16.318     356.166
  H      -61.415     -15.024     351.094
  H      -64.543     -14.960     357.531
  H      -64.870      -8.584     351.272
  H      -64.760     -13.992     354.746
  H      -64.848     -14.433     350.933
  H      -62.698     -14.930     353.099
  H      -64.887      -9.126     349.002
  H      -62.421     -17.137     352.148
  H      -64.930     -10.795     348.528
  H      -65.197     -17.535     351.734
  H      -65.506     -17.897     354.080
  H      -63.852     -18.419     353.711
  P      -62.092     -17.373     349.637
  C      -63.210     -19.671     349.143
  O      -62.261     -18.943     349.898
  O      -60.854     -16.965     350.573
  O      -61.891     -16.968     348.211
  H      -60.031     -16.976     350.058
  H      -62.683     -20.426     348.547
  H      -63.790     -19.032     348.473
  H      -63.892     -20.180     349.829
  H      -62.839     -19.087     357.774
  H      -62.587     -17.360     357.860
  H      -62.398     -18.196     356.337

 3  4  5  6  7  8  9  10  11  12  23  26  30  31 0
 6-311+G(2d,p)
 ****
 33  35  36  37  38 0
 6-311+G(2d,p)
 ****
 1  2  13  14  15  16  17  18  19  20  21  22  24  25 0
 3-21G
 ****
 27  28  29  32  34  39  40  41  42  43  44  45  46  47  48  49 0
 3-21G
 ****


