%nproc=1
%NoSave
%Mem=1900MB
#P OB98/GEN NMR

erre ene a

0 1
  C     -220.318    -355.373    -221.883
  O     -219.709    -354.196    -221.374
  P     -220.603    -352.923    -220.965
  C     -218.938    -351.364    -222.144
  O     -219.570    -351.687    -220.919
  C     -217.798    -350.359    -221.891
  O     -218.392    -349.069    -221.604
  C     -216.882    -350.668    -220.704
  O     -215.825    -351.569    -220.990
  C     -216.305    -349.276    -220.437
  O     -215.245    -349.004    -221.378
  C     -217.505    -348.373    -220.679
  N     -220.579    -344.950    -218.433
  C     -220.054    -345.023    -219.677
  N     -219.232    -345.955    -220.190
  C     -218.988    -346.933    -219.292
  C     -219.452    -347.005    -217.986
  C     -220.291    -345.948    -217.554
  N     -220.843    -345.893    -216.299
  N     -218.978    -348.134    -217.367
  C     -218.237    -348.738    -218.289
  N     -218.231    -348.046    -219.468
  O     -221.440    -353.118    -219.745
  O     -221.464    -352.610    -222.271
  H     -214.662    -349.789    -221.405
  H     -222.226    -352.035    -222.036
  H     -220.333    -344.207    -220.348
  H     -217.702    -349.669    -218.139
  H     -217.218    -347.424    -221.170
  H     -215.853    -349.197    -219.438
  H     -217.467    -350.991    -219.827
  H     -217.214    -350.272    -222.821
  H     -219.669    -350.907    -222.807
  H     -221.528    -345.187    -216.117
  H     -220.758    -346.720    -215.705
  H     -218.547    -352.271    -222.627
  P     -215.633    -352.808    -219.977
  C     -213.225    -352.393    -219.019
  O     -214.049    -353.097    -219.930
  O     -216.485    -353.996    -220.267
  O     -215.921    -352.148    -218.546
  H     -215.276    -351.489    -218.251
  H     -212.227    -352.842    -219.035
  H     -213.623    -352.471    -217.995
  H     -213.148    -351.351    -219.301
  H     -219.564    -356.102    -222.095
  H     -220.851    -355.139    -222.781
  H     -220.999    -355.765    -221.157

 3  4  5  6  7  8  9  10  11  12  22  25  29  30  31  32 0
 6-311+G(2d,p)
 ****
 33  36  37 0
 6-311+G(2d,p)
 ****
 1  2  13  14  15  16  17  18  19  20  21  23  24  26 0
 3-21G
 ****
 27  28  34  35  38  39  40  41  42  43  44  45  46  47  48 0
 3-21G
 ****


