%nproc=1
%NoSave
%Mem=1900MB
#P OB98/GEN NMR

erre ene a

0 1
  C      145.579    -123.819     -16.134
  O      145.674    -122.419     -15.930
  P      144.898    -121.789     -14.673
  C      142.566    -121.749     -15.833
  O      143.628    -121.005     -15.261
  C      141.369    -120.841     -16.124
  O      140.351    -121.622     -16.801
  C      140.715    -120.224     -14.883
  O      140.210    -118.940     -15.271
  C      139.556    -121.162     -14.603
  O      138.534    -120.556     -13.818
  C      139.137    -121.524     -16.024
  N      134.805    -123.860     -14.857
  C      135.229    -122.577     -14.557
  N      134.345    -121.793     -13.905
  N      136.408    -122.109     -14.870
  C      137.176    -123.005     -15.533
  C      136.887    -124.309     -15.854
  C      135.566    -124.803     -15.536
  O      135.118    -125.900     -15.859
  N      137.951    -124.930     -16.449
  C      138.855    -123.978     -16.561
  N      138.415    -122.781     -16.063
  O      145.879    -120.621     -14.198
  O      144.567    -122.746     -13.570
  H      138.935    -120.270     -12.972
  H      146.478    -120.929     -13.490
  H      133.879    -124.158     -14.607
  H      139.835    -124.093     -16.996
  H      138.497    -120.759     -16.482
  H      139.917    -122.044     -14.062
  H      133.408    -122.078     -13.661
  H      141.394    -120.126     -14.032
  H      134.617    -120.838     -13.701
  H      141.693    -120.057     -16.816
  H      142.253    -122.521     -15.122
  H      142.912    -122.242     -16.748
  P      140.545    -117.686     -14.330
  C      138.031    -117.158     -14.000
  O      139.303    -116.683     -14.399
  O      141.685    -116.917     -15.156
  O      141.030    -118.042     -12.962
  H      142.299    -116.481     -14.538
  H      137.408    -116.305     -13.722
  H      138.106    -117.834     -13.142
  H      137.561    -117.684     -14.835
  H      146.142    -124.092     -17.002
  H      144.554    -124.090     -16.275
  H      145.969    -124.331     -15.280

 3  4  5  6  7  8  9  10  11  12  23  26  30  31 0
 6-311+G(2d,p)
 ****
 33  35  36  37  38 0
 6-311+G(2d,p)
 ****
 1  2  13  14  15  16  17  18  19  20  21  22  24  25 0
 3-21G
 ****
 27  28  29  32  34  39  40  41  42  43  44  45  46  47  48  49 0
 3-21G
 ****


