%nproc=1
%NoSave
%Mem=1900MB
#P OB98/GEN NMR

erre ene a

0 1
  C      563.204     154.730     250.995
  O      563.634     154.274     252.264
  H      563.386     153.940     250.260
  H      563.759     155.626     250.703
  H      562.130     154.944     251.020
  P      563.480     155.304     253.485
  C      561.988     154.087     255.200
  O      563.319     154.363     254.781
  C      561.917     152.722     255.897
  O      562.045     151.687     254.888
  C      563.027     152.514     256.927
  O      562.493     151.798     258.046
  C      564.036     151.642     256.201
  O      564.833     150.865     257.093
  C      563.129     150.819     255.281
  N      567.135     148.068     253.728
  C      566.592     148.256     254.946
  N      565.507     148.998     255.266
  C      564.956     149.535     254.171
  C      565.397     149.436     252.860
  C      566.556     148.662     252.657
  N      567.136     148.487     251.423
  N      564.586     150.170     252.012
  C      563.658     150.695     252.796
  N      563.848     150.349     254.107
  O      562.436     156.353     253.324
  O      564.981     155.844     253.641
  H      565.163     150.085     256.601
  H      565.632     155.123     253.584
  H      567.089     147.752     255.771
  H      562.844     151.336     252.466
  H      562.708     149.939     255.787
  H      564.715     152.273     255.609
  H      563.470     153.451     257.268
  H      560.924     152.610     256.344
  H      561.314     154.093     254.335
  H      567.960     147.902     251.357
  H      566.708     148.903     250.608
  H      561.676     154.881     255.889
  P      562.836     152.326     259.524
  C      560.474     153.219     260.089
  O      561.495     152.271     260.405
  O      563.606     153.609     259.598
  O      563.691     151.111     260.140
  H      564.402     151.480     260.695
  H      559.640     153.077     260.744
  H      560.159     153.080     259.076
  H      560.858     154.210     260.210

 6  7  8  9  10  11  12  13  14  15  25  28  32  33  34  35 0
 6-311+G(2d,p)
 ****
 36  39  40 0
 6-311+G(2d,p)
 ****
 1  2  3  4  5  16  17  18  19  20  21  22  23  24 0
 3-21G
 ****
 26  27  29  30  31  37  38  41  42  43  44  45  46  47 0
 3-21G
 ****
 48 0
 3-21G
 ****


