%nproc=1
%NoSave
%Mem=1900MB
#P OB98/GEN NMR

erre ene a

0 1
  C     -242.305    -184.111    -237.574
  O     -243.291    -184.409    -236.600
  P     -243.872    -185.901    -236.542
  C     -242.691    -186.450    -234.293
  O     -242.864    -186.793    -235.661
  C     -243.052    -187.629    -233.391
  O     -243.013    -187.206    -232.000
  C     -244.451    -188.199    -233.656
  O     -244.434    -189.618    -233.421
  C     -245.301    -187.573    -232.570
  O     -246.468    -188.350    -232.302
  C     -244.298    -187.521    -231.414
  N     -245.535    -186.853    -226.562
  C     -244.967    -187.951    -227.179
  N     -244.788    -189.047    -226.412
  N     -244.604    -187.969    -228.434
  C     -244.852    -186.802    -229.082
  C     -245.394    -185.642    -228.571
  C     -245.800    -185.642    -227.185
  O     -246.332    -184.715    -226.587
  N     -245.455    -184.658    -229.522
  C     -244.992    -185.227    -230.619
  N     -244.648    -186.538    -230.411
  O     -243.637    -186.433    -238.033
  O     -245.312    -185.996    -236.160
  H     -247.079    -188.209    -233.050
  H     -244.486    -186.453    -238.514
  H     -245.806    -186.894    -225.592
  H     -244.909    -184.751    -231.585
  H     -244.203    -188.492    -230.919
  H     -245.616    -186.569    -232.876
  H     -245.111    -189.119    -225.456
  H     -244.839    -188.001    -234.659
  H     -244.417    -189.880    -226.851
  H     -242.289    -188.407    -233.504
  H     -243.337    -185.606    -234.052
  H     -241.652    -186.146    -234.122
  P     -245.142    -190.521    -234.547
  C     -242.863    -190.811    -235.771
  O     -244.216    -190.403    -235.847
  O     -246.447    -189.675    -234.932
  O     -245.472    -191.907    -234.102
  H     -247.140    -190.268    -235.283
  H     -242.707    -191.651    -236.448
  H     -242.576    -191.109    -234.759
  H     -242.224    -189.978    -236.086
  H     -242.018    -183.084    -237.489
  H     -242.703    -184.290    -238.551
  H     -241.449    -184.734    -237.418

 3  4  5  6  7  8  9  10  11  12  23  26  30  31 0
 6-311+G(2d,p)
 ****
 33  35  36  37  38 0
 6-311+G(2d,p)
 ****
 1  2  13  14  15  16  17  18  19  20  21  22  24  25 0
 3-21G
 ****
 27  28  29  32  34  39  40  41  42  43  44  45  46  47  48  49 0
 3-21G
 ****


