%nproc=1
%NoSave
%Mem=1900MB
#P OB98/GEN NMR

erre ene a

0 1
  C      -22.138      36.635     -27.774
  O      -22.686      35.344     -27.565
  P      -22.852      34.389     -28.845
  C      -21.111      33.071     -30.250
  O      -21.403      34.254     -29.521
  C      -20.349      33.396     -31.536
  O      -21.259      34.038     -32.472
  C      -19.149      34.337     -31.345
  O      -18.151      33.929     -32.288
  C      -19.740      35.685     -31.718
  O      -18.773      36.681     -32.003
  C      -20.637      35.277     -32.882
  N      -21.472      39.793     -35.124
  C      -20.364      39.024     -35.035
  N      -20.219      37.827     -34.428
  C      -21.381      37.430     -33.881
  C      -22.584      38.114     -33.874
  C      -22.607      39.353     -34.534
  N      -23.738      40.141     -34.615
  N      -23.548      37.405     -33.189
  C      -22.937      36.310     -32.787
  N      -21.634      36.272     -33.199
  O      -23.655      35.308     -29.878
  O      -23.557      33.095     -28.580
  H      -18.160      36.362     -32.695
  H      -24.313      34.788     -30.376
  H      -19.475      39.422     -35.515
  H      -23.385      35.528     -32.190
  H      -20.060      35.075     -33.793
  H      -20.341      36.054     -30.878
  H      -18.725      34.300     -30.337
  H      -20.023      32.454     -31.992
  H      -22.047      32.573     -30.523
  H      -23.601      41.090     -34.931
  H      -24.509      39.904     -34.003
  H      -20.539      32.386     -29.616
  P      -16.612      34.260     -31.979
  C      -14.938      33.321     -30.272
  O      -16.298      33.427     -30.642
  O      -16.729      35.751     -31.410
  O      -15.669      34.102     -33.122
  H      -17.403      35.816     -30.709
  H      -14.878      32.820     -29.302
  H      -14.489      34.315     -30.185
  H      -14.395      32.726     -31.011
  H      -22.087      37.156     -26.841
  H      -22.759      37.180     -28.453
  H      -21.155      36.543     -28.186

 3  4  5  6  7  8  9  10  11  12  22  25  29  30  31  32 0
 6-311+G(2d,p)
 ****
 33  36  37 0
 6-311+G(2d,p)
 ****
 1  2  13  14  15  16  17  18  19  20  21  23  24  26 0
 3-21G
 ****
 27  28  34  35  38  39  40  41  42  43  44  45  46  47  48 0
 3-21G
 ****


