%nproc=1
%NoSave
%Mem=1900MB
#P OB98/GEN NMR

erre ene a

0 1
  C        0.217     160.966     -72.671
  O        1.376     161.452     -72.022
  H       -0.363     160.380     -71.954
  H        0.492     160.326     -73.513
  H       -0.393     161.803     -73.020
  P        2.390     162.315     -72.918
  C        4.004     164.259     -72.410
  O        3.131     163.277     -71.864
  C        4.010     165.514     -71.535
  O        2.749     166.206     -71.716
  C        4.166     165.214     -70.042
  O        4.987     166.217     -69.446
  C        2.750     165.329     -69.506
  O        2.718     165.655     -68.119
  C        2.157     166.401     -70.420
  N       -2.162     166.640     -67.717
  C       -0.882     166.924     -67.400
  N        0.211     166.847     -68.190
  C       -0.129     166.474     -69.437
  C       -1.389     166.150     -69.906
  C       -2.443     166.237     -68.980
  N       -3.747     165.925     -69.286
  N       -1.327     165.771     -71.233
  C       -0.053     165.879     -71.562
  N        0.711     166.285     -70.503
  O        1.788     163.002     -74.097
  O        3.523     161.237     -73.256
  H        1.792     165.585     -67.807
  H        3.762     160.712     -72.470
  H       -0.708     167.248     -66.377
  H        0.363     165.663     -72.540
  H        2.385     167.418     -70.079
  H        2.225     164.374     -69.640
  H        4.592     164.228     -69.856
  H        4.797     166.187     -71.892
  H        3.689     164.522     -73.426
  H       -4.445     166.030     -68.565
  H       -3.979     165.641     -70.228
  H        5.008     163.826     -72.459
  P        6.543     165.903     -69.233
  C        8.609     167.402     -69.623
  O        7.321     167.291     -69.023
  O        7.160     164.963     -70.213
  O        6.569     165.276     -67.755
  H        7.231     164.559     -67.727
  H        9.019     168.367     -69.411
  H        8.521     167.276     -70.682
  H        9.254     166.646     -69.226

 6  7  8  9  10  11  12  13  14  15  25  28  32  33  34  35 0
 6-311+G(2d,p)
 ****
 36  39  40 0
 6-311+G(2d,p)
 ****
 1  2  3  4  5  16  17  18  19  20  21  22  23  24 0
 3-21G
 ****
 26  27  29  30  31  37  38  41  42  43  44  45  46  47 0
 3-21G
 ****
 48 0
 3-21G
 ****


