%nproc=1
%NoSave
%Mem=1900MB
#P OB98/GEN NMR

erre ene a

0 1
  C      321.316      29.260     579.689
  O      322.466      28.733     579.056
  P      323.888      29.376     579.439
  C      325.067      27.059     579.624
  O      324.700      28.270     580.269
  C      325.741      26.123     580.631
  O      324.763      25.591     581.554
  C      326.399      24.911     579.990
  O      327.658      25.244     579.421
  C      326.501      23.952     581.170
  O      327.662      24.238     581.963
  C      325.214      24.281     581.955
  N      324.177      23.266     581.771
  C      324.337      22.091     582.498
  O      325.305      21.889     583.238
  N      323.370      21.137     582.316
  C      322.316      21.220     581.458
  O      321.516      20.307     581.296
  C      322.209      22.476     580.691
  C      323.136      23.418     580.875
  O      323.520      30.484     580.538
  O      324.634      29.961     578.288
  H      328.441      23.963     581.435
  H      324.110      31.256     580.437
  H      323.458      20.292     582.852
  H      321.385      22.571     579.999
  H      323.085      24.347     580.312
  H      325.434      24.352     583.026
  H      326.579      22.907     580.851
  H      325.729      24.478     579.236
  H      326.475      26.702     581.208
  H      325.757      27.279     578.806
  H      324.170      26.589     579.203
  P      327.728      25.336     577.820
  C      329.286      27.432     577.898
  O      328.053      26.871     577.502
  O      326.183      25.147     577.442
  O      328.646      24.326     577.219
  H      325.590      25.523     578.114
  H      330.102      26.703     577.817
  H      329.212      27.783     578.932
  H      329.509      28.285     577.254
  H      320.448      28.741     579.341
  H      321.226      30.301     579.457
  H      321.404      29.137     580.748

 3  4  5  6  7  8  9  10  11  12  13  23  28  29  30  31  32 0
 6-311+G(2d,p)
 ****
 33  34 0
 6-311+G(2d,p)
 ****
 1  2  14  15  16  17  18  19  20  21  22  24  25  26 0
 3-21G
 ****
 27  35  36  37  38  39  40  41  42  43  44  45 0
 3-21G
 ****


