%nproc=1
%NoSave
%Mem=1900MB
#P OB98/GEN NMR

erre ene a

0 1
  C     -301.631     157.796     328.800
  O     -302.233     157.848     330.099
  P     -303.510     156.897     330.318
  C     -305.332     158.734     330.122
  O     -304.762     157.566     329.552
  C     -306.824     158.549     330.417
  O     -307.381     159.727     331.074
  C     -307.674     158.281     329.166
  O     -308.726     157.386     329.552
  C     -308.279     159.649     328.876
  O     -309.418     159.554     328.030
  C     -308.550     160.124     330.304
  N     -311.976     163.665     331.401
  C     -312.120     162.293     331.291
  N     -313.345     161.789     331.571
  N     -311.149     161.494     330.951
  C     -309.966     162.138     330.743
  C     -309.701     163.484     330.839
  C     -310.799     164.370     331.188
  O     -310.731     165.591     331.302
  N     -308.367     163.754     330.586
  C     -307.869     162.571     330.274
  N     -308.772     161.559     330.413
  O     -303.858     157.100     331.868
  O     -303.255     155.459     329.989
  H     -309.737     160.469     327.868
  H     -303.515     156.345     332.389
  H     -312.769     164.241     331.658
  H     -306.844     162.389     329.978
  H     -309.432     159.644     330.741
  H     -307.537     160.295     328.387
  H     -314.125     162.344     331.891
  H     -307.119     157.881     328.310
  H     -313.462     160.788     331.532
  H     -306.933     157.706     331.118
  H     -305.216     159.584     329.437
  H     -304.775     159.000     331.032
  P     -309.143     156.240     328.512
  C     -311.598     157.047     328.212
  O     -310.332     156.825     327.610
  O     -309.890     155.159     329.445
  O     -308.009     155.614     327.773
  H     -309.651     154.255     329.146
  H     -312.120     157.837     327.669
  H     -311.496     157.346     329.265
  H     -312.190     156.121     328.166
  H     -300.796     158.464     328.767
  H     -302.349     158.086     328.062
  H     -301.298     156.799     328.601

 3  4  5  6  7  8  9  10  11  12  23  26  30  31 0
 6-311+G(2d,p)
 ****
 33  35  36  37  38 0
 6-311+G(2d,p)
 ****
 1  2  13  14  15  16  17  18  19  20  21  22  24  25 0
 3-21G
 ****
 27  28  29  32  34  39  40  41  42  43  44  45  46  47  48  49 0
 3-21G
 ****


