%nproc=1
%NoSave
%Mem=1900MB
#P OB98/GEN NMR

erre ene a

0 1
  C       18.199    -122.532     -21.620
  O       17.310    -121.882     -22.507
  P       16.952    -120.327     -22.347
  C       14.819    -120.989     -21.067
  O       16.018    -120.228     -21.044
  C       13.738    -120.355     -20.192
  O       14.118    -120.466     -18.791
  C       13.470    -118.870     -20.481
  O       12.071    -118.661     -20.247
  C       14.298    -118.175     -19.418
  O       13.887    -116.831     -19.191
  C       14.111    -119.134     -18.233
  N       15.143    -118.955     -17.214
  C       15.150    -117.734     -16.536
  O       14.362    -116.839     -16.856
  N       16.081    -117.532     -15.547
  C       16.990    -118.431     -15.333
  N       17.883    -118.179     -14.338
  C       17.096    -119.677     -16.114
  C       16.141    -119.879     -17.019
  O       16.396    -119.673     -23.567
  O       18.323    -119.673     -21.841
  H       14.587    -116.376     -18.677
  H       18.954    -119.569     -22.594
  H       17.905    -120.371     -15.939
  H       16.134    -120.768     -17.641
  H       13.131    -118.982     -17.763
  H       15.352    -118.155     -19.726
  H       13.741    -118.565     -21.493
  H       12.815    -120.935     -20.321
  H       17.767    -117.318     -13.818
  H       15.042    -121.988     -20.679
  H       18.579    -118.847     -14.036
  H       14.467    -121.102     -22.100
  P       11.216    -117.650     -21.147
  C       11.597    -115.531     -19.759
  O       11.876    -116.199     -20.977
  O        9.740    -117.701     -20.930
  O       11.595    -118.045     -22.654
  H       10.939    -117.659     -23.266
  H       12.305    -114.705     -19.633
  H       11.688    -116.212     -18.907
  H       10.583    -115.125     -19.790
  H       18.298    -123.559     -21.903
  H       17.815    -122.472     -20.623
  H       19.157    -122.056     -21.663

 3  4  5  6  7  8  9  10  11  12  13  23  27  28  29  30  32 0
 6-311+G(2d,p)
 ****
 34  35 0
 6-311+G(2d,p)
 ****
 1  2  14  15  16  17  18  19  20  21  22  24  25  26 0
 3-21G
 ****
 31  33  36  37  38  39  40  41  42  43  44  45  46 0
 3-21G
 ****


