%nproc=1
%NoSave
%Mem=1900MB
#P OB98/GEN NMR

erre ene a

0 1
  C       94.111     -34.210     145.496
  O       93.301     -33.454     146.379
  P       91.789     -33.167     145.922
  C       92.090     -30.580     145.914
  O       91.791     -31.754     145.167
  C       93.079     -29.703     145.145
  O       93.974     -30.530     144.372
  C       92.435     -28.756     144.141
  O       91.843     -27.644     144.792
  C       93.638     -28.416     143.267
  O       94.459     -27.432     143.919
  C       94.379     -29.763     143.204
  N       94.884     -29.952     138.111
  C       95.279     -29.036     139.024
  N       95.086     -29.046     140.360
  C       94.416     -30.145     140.735
  C       93.930     -31.153     139.919
  C       94.188     -31.033     138.543
  N       93.777     -31.966     137.616
  N       93.266     -32.110     140.659
  C       93.364     -31.693     141.905
  N       94.063     -30.520     142.005
  O       91.047     -32.848     147.304
  O       91.131     -34.288     145.179
  H       94.060     -26.557     143.741
  H       90.124     -33.165     147.284
  H       95.824     -28.184     138.629
  H       92.953     -32.208     142.765
  H       95.466     -29.647     143.245
  H       93.360     -28.014     142.286
  H       91.678     -29.282     143.544
  H       93.674     -29.141     145.875
  H       92.540     -30.861     146.873
  H       93.873     -31.727     136.639
  H       93.142     -32.690     137.922
  H       91.161     -30.040     146.112
  P       90.240     -27.530     144.745
  C       90.407     -25.214     143.642
  O       89.966     -26.553     143.498
  O       89.947     -26.586     146.001
  O       89.519     -28.832     144.724
  H       90.517     -25.796     146.007
  H       90.206     -24.680     142.709
  H       91.482     -25.188     143.842
  H       89.862     -24.726     144.455
  H       95.087     -34.327     145.919
  H       94.187     -33.701     144.558
  H       93.670     -35.173     145.344

 3  4  5  6  7  8  9  10  11  12  22  25  29  30  31  32 0
 6-311+G(2d,p)
 ****
 33  36  37 0
 6-311+G(2d,p)
 ****
 1  2  13  14  15  16  17  18  19  20  21  23  24  26 0
 3-21G
 ****
 27  28  34  35  38  39  40  41  42  43  44  45  46  47  48 0
 3-21G
 ****


