%nproc=1
%NoSave
%Mem=1900MB
#P OB98/GEN NMR

erre ene a

0 1
  C      153.336     512.250    -899.030
  O      154.069     512.216    -897.810
  H      152.283     512.035    -898.790
  H      153.713     511.479    -899.700
  H      153.403     513.230    -899.490
  P      155.631     512.595    -897.910
  C      155.443     514.932    -896.790
  O      155.926     513.598    -896.680
  C      155.427     515.604    -895.410
  O      154.201     515.231    -894.710
  C      156.614     515.224    -894.510
  O      156.962     516.378    -893.730
  C      156.001     514.185    -893.580
  O      156.742     514.042    -892.360
  C      154.597     514.767    -893.400
  N      151.245     513.935    -889.750
  C      151.981     515.071    -890.040
  N      151.810     516.137    -889.240
  N      152.830     515.136    -891.040
  C      152.878     514.003    -891.780
  C      152.191     512.805    -891.580
  C      151.278     512.741    -890.460
  O      150.605     511.766    -890.140
  N      152.535     511.890    -892.540
  C      153.431     512.511    -893.300
  N      153.660     513.785    -892.870
  O      155.680     513.550    -899.200
  O      156.573     511.437    -898.030
  H      156.907     514.940    -892.010
  H      155.897     513.021    -900.000
  H      150.613     513.940    -888.960
  H      153.931     512.066    -894.160
  H      154.584     515.617    -892.710
  H      155.970     513.201    -894.080
  H      151.147     516.180    -888.480
  H      157.490     514.860    -895.040
  H      152.323     516.990    -889.460
  H      155.382     516.704    -895.560
  H      154.419     514.902    -897.190
  H      156.081     515.492    -897.480
  P      158.404     516.409    -893.030
  C      159.352     518.363    -894.490
  O      159.003     517.903    -893.190
  O      159.301     515.573    -894.070
  O      158.461     515.821    -891.670
  H      160.055     515.155    -893.610
  H      159.730     519.362    -894.425
  H      158.486     518.349    -895.118
  H      160.103     517.724    -894.905

 6  7  8  9  10  11  12  13  14  15  26  29  33  34 0
 6-311+G(2d,p)
 ****
 36  38  39  40  41 0
 6-311+G(2d,p)
 ****
 1  2  3  4  5  16  17  18  19  20  21  22  23  24  25 0
 3-21G
 ****
 27  28  30  31  32  35  37  42  43  44  45  46  47 0
 3-21G
 ****
 48  49 0
 3-21G
 ****


