%nproc=1
%NoSave
%Mem=1900MB
#P OB98/GEN NMR

erre ene a

0 1
  C       75.001    -481.287    -364.240
  O       74.324    -480.512    -363.245
  P       75.232    -479.676    -362.218
  C       75.539    -481.498    -360.371
  O       74.924    -480.284    -360.764
  C       75.339    -481.749    -358.870
  O       76.426    -481.133    -358.115
  C       74.018    -481.205    -358.308
  O       73.565    -482.149    -357.325
  C       74.438    -479.907    -357.641
  O       73.504    -479.491    -356.653
  C       75.820    -480.299    -357.106
  N       76.654    -479.141    -356.796
  C       77.760    -479.366    -355.982
  O       78.003    -480.456    -355.466
  N       78.553    -478.276    -355.740
  C       78.312    -477.002    -356.164
  O       79.059    -476.059    -355.916
  C       77.069    -476.805    -356.924
  C       76.310    -477.868    -357.198
  O       74.491    -478.260    -362.221
  O       76.674    -479.641    -362.609
  H       73.524    -478.327    -362.287
  H       72.638    -479.320    -357.083
  H       79.377    -478.421    -355.180
  H       76.811    -475.797    -357.223
  H       75.378    -477.756    -357.735
  H       75.718    -480.908    -356.199
  H       74.525    -479.116    -358.393
  H       73.251    -481.073    -359.076
  H       75.396    -482.830    -358.697
  H       76.616    -481.454    -360.577
  H       75.133    -482.320    -360.967
  P       72.549    -483.305    -357.793
  C       70.301    -482.267    -356.945
  O       71.289    -483.258    -356.803
  O       73.355    -484.600    -357.292
  O       72.256    -483.339    -359.257
  H       73.687    -484.516    -356.380
  H       69.434    -482.548    -356.339
  H       69.984    -482.172    -357.984
  H       70.682    -481.307    -356.581
  H       74.281    -481.789    -364.852
  H       75.629    -482.010    -363.763
  H       75.599    -480.642    -364.849

 3  4  5  6  7  8  9  10  11  12  13  24  28  29  30  31  32 0
 6-311+G(2d,p)
 ****
 33  34 0
 6-311+G(2d,p)
 ****
 1  2  14  15  16  17  18  19  20  21  22  23  25  26  27 0
 3-21G
 ****
 35  36  37  38  39  40  41  42  43  44  45 0
 3-21G
 ****


