%nproc=1
%NoSave
%Mem=1900MB
#P OB98/GEN NMR

erre ene a

0 1
  C      263.064    -334.099    -622.240
  O      262.518    -335.232    -622.882
  H      263.941    -333.762    -622.801
  H      263.375    -334.349    -621.221
  H      262.330    -333.288    -622.214
  P      261.277    -335.939    -622.144
  C      260.779    -337.217    -624.366
  O      261.071    -337.300    -622.979
  C      260.572    -338.621    -624.932
  O      261.814    -339.355    -624.937
  C      259.595    -339.476    -624.134
  O      258.238    -339.160    -624.402
  C      259.964    -340.858    -624.642
  O      259.417    -341.051    -625.960
  C      261.507    -340.754    -624.694
  N      262.154    -341.212    -623.461
  C      262.275    -342.600    -623.296
  O      261.839    -343.371    -624.150
  N      262.856    -343.083    -622.147
  C      263.292    -342.252    -621.247
  N      263.842    -342.786    -620.121
  C      263.197    -340.789    -621.387
  C      262.625    -340.345    -622.503
  O      260.018    -335.061    -622.599
  O      261.405    -336.118    -620.668
  H      258.452    -341.112    -625.859
  H      259.183    -335.492    -622.296
  H      263.565    -340.141    -620.603
  H      262.526    -339.279    -622.676
  H      261.911    -341.327    -625.536
  H      259.581    -341.663    -624.015
  H      259.806    -339.429    -623.060
  H      260.251    -338.519    -625.980
  H      263.830    -343.791    -620.026
  H      261.616    -336.723    -624.866
  H      264.041    -342.233    -619.292
  H      259.871    -336.625    -624.526
  P      257.254    -338.995    -623.141
  C      255.473    -337.519    -624.319
  O      255.775    -338.772    -623.729
  O      257.642    -337.556    -622.562
  O      257.370    -340.068    -622.102
  H      257.626    -337.550    -621.588
  H      254.459    -337.521    -624.662
  H      256.129    -337.347    -625.147
  H      255.603    -336.743    -623.594

 6  7  8  9  10  11  12  13  14  15  16  26  30  31  32  33  35 0
 6-311+G(2d,p)
 ****
 37  38 0
 6-311+G(2d,p)
 ****
 1  2  3  4  5  17  18  19  20  21  22  23  24  25 0
 3-21G
 ****
 27  28  29  34  36  39  40  41  42  43  44  45  46 0
 3-21G
 ****


