%nproc=1
%NoSave
%Mem=1900MB
#P OB98/GEN NMR

erre ene a

0 1
  C      694.981    -899.099    -203.053
  O      693.907    -898.949    -204.002
  P      692.993    -897.649    -203.838
  C      693.024    -896.919    -206.337
  O      693.396    -896.579    -204.999
  C      692.739    -895.629    -207.163
  O      691.502    -895.009    -206.646
  C      693.837    -894.549    -207.091
  O      693.927    -893.919    -208.376
  C      693.257    -893.539    -206.118
  O      693.859    -892.249    -206.305
  C      691.781    -893.609    -206.457
  N      689.098    -889.569    -204.997
  C      689.718    -889.829    -206.197
  N      689.657    -888.849    -207.113
  N      690.375    -890.949    -206.455
  C      690.315    -891.829    -205.449
  C      689.714    -891.759    -204.203
  C      689.026    -890.469    -203.938
  O      688.485    -890.169    -202.852
  N      689.883    -892.859    -203.447
  C      690.619    -893.659    -204.206
  N      690.906    -893.079    -205.445
  O      693.521    -896.949    -202.510
  O      691.512    -897.939    -203.741
  H      694.813    -892.329    -206.103
  H      692.810    -896.859    -201.853
  H      688.623    -888.709    -204.819
  H      690.981    -894.639    -203.934
  H      691.544    -893.099    -207.391
  H      693.487    -893.839    -205.097
  H      689.124    -887.989    -207.000
  H      694.810    -894.929    -206.804
  H      690.098    -889.029    -208.037
  H      692.536    -895.919    -208.189
  H      692.139    -897.549    -206.344
  H      693.842    -897.449    -206.800
  P      695.363    -893.909    -209.082
  C      694.639    -894.659    -211.476
  O      695.300    -894.999    -210.262
  O      696.310    -894.619    -207.978
  O      695.866    -892.579    -209.489
  H      697.249    -894.309    -208.101
  H      694.379    -893.619    -211.519
  H      693.689    -895.229    -211.526
  H      695.284    -894.939    -212.308
  H      695.519    -900.000    -203.262
  H      694.578    -899.146    -202.063
  H      695.644    -898.262    -203.129

 3  4  5  6  7  8  9  10  11  12  23  26  30  31  33  0
 6-311+G(2d,p)
 ****
 35  36  37  38 0
 6-311+G(2d,p)
 ****
 1  2  13  14  15  16  17  18  19  20  21  22  24  25  27  28  29 0
 3-21G
 ****
 32  34  39  40  41  42  43  44  45  46  47  48  49 0
 3-21G
 ****


