%nproc=1
%NoSave
%Mem=1900MB
#P OB98/GEN NMR

erre ene a

0 1
  C      115.169      75.472       9.909
  O      115.710      75.144      11.178
  P      116.263      73.652      11.397
  C      118.740      74.446      11.541
  O      117.781      73.643      10.875
  C      120.009      73.643      11.826
  O      120.988      74.524      12.439
  C      119.818      72.451      12.771
  O      120.751      71.441      12.366
  C      120.231      73.013      14.119
  O      120.597      72.001      15.050
  C      121.368      73.939      13.703
  N      124.878      76.666      16.116
  C      125.028      75.601      15.246
  N      126.296      75.258      14.933
  N      124.028      74.936      14.729
  C      122.820      75.407      15.120
  C      122.543      76.423      16.004
  C      123.656      77.174      16.537
  O      123.568      78.177      17.242
  N      121.196      76.548      16.220
  C      120.658      75.662      15.407
  N      121.600      74.978      14.686
  O      115.475      72.815      10.286
  O      116.087      73.091      12.773
  H      121.325      71.480      14.656
  H      114.665      72.413      10.657
  H      125.687      77.151      16.467
  H      119.601      75.477      15.294
  H      122.317      73.402      13.560
  H      119.399      73.583      14.551
  H      127.114      75.745      15.270
  H      118.801      72.052      12.772
  H      126.435      74.503      14.273
  H      120.428      73.307      10.867
  H      118.320      74.783      12.494
  H      118.966      75.328      10.932
  P      120.219      69.934      12.242
  C      120.364      70.120       9.663
  O      119.581      69.764      10.785
  O      118.937      69.929      13.206
  O      121.199      68.887      12.659
  H      118.832      69.048      13.608
  H      119.979      69.594       8.785
  H      121.415      69.849       9.804
  H      120.288      71.196       9.492
  H      114.844      76.491       9.913
  H      114.337      74.833       9.700
  H      115.918      75.339       9.157

 3  4  5  6  7  8  9  10  11  12  23  26  30  31 0
 6-311+G(2d,p)
 ****
 33  35  36  37  38 0
 6-311+G(2d,p)
 ****
 1  2  13  14  15  16  17  18  19  20  21  22  24  25 0
 3-21G
 ****
 27  28  29  32  34  39  40  41  42  43  44  45  46  47  48  49 0
 3-21G
 ****


