%nproc=1
%NoSave
%Mem=1900MB
#P OB98/GEN NMR

erre ene a

0 1
  C       99.749     -58.478      65.133
  O       98.680     -57.663      65.570
  H       99.603     -59.488      65.524
  H      100.697     -58.086      65.515
  H       99.776     -58.520      64.040
  P       98.606     -56.180      64.969
  C       98.963     -54.174      66.627
  O       99.537     -55.247      65.890
  C       98.430     -54.687      67.963
  O       99.380     -55.564      68.602
  C       98.196     -53.595      68.993
  O       97.084     -52.784      68.689
  C       98.022     -54.435      70.250
  O       96.704     -54.999      70.318
  C       99.081     -55.544      70.025
  N      100.280     -55.341      70.826
  C      100.079     -55.244      72.210
  O       98.945     -55.341      72.682
  N      101.166     -55.011      73.016
  C      102.349     -54.911      72.496
  N      103.382     -54.670      73.347
  C      102.608     -55.033      71.047
  C      101.538     -55.239      70.279
  O       97.131     -55.713      65.370
  O       98.917     -56.067      63.512
  H       96.081     -54.249      70.255
  H       96.935     -55.807      66.317
  H      103.612     -54.949      70.657
  H      101.640     -55.339      69.206
  H       98.667     -56.528      70.276
  H       98.163     -53.848      71.160
  H       99.104     -52.990      69.117
  H       97.514     -55.259      67.767
  H      103.163     -54.571      74.333
  H       98.167     -53.689      66.055
  H      104.339     -54.541      73.055
  H       99.749     -53.431      66.795
  P       96.990     -51.282      69.243
  C       95.402     -50.970      71.242
  O       96.692     -51.401      70.815
  O       96.057     -50.387      68.498
  O       98.516     -50.792      69.225
  H       99.121     -51.319      69.777
  H       95.317     -51.095      72.301
  H       94.651     -51.554      70.753
  H       95.270     -49.938      70.992

 6  7  8  9  10  11  12  13  14  15  16  26  30  31  32  33  35 0
 6-311+G(2d,p)
 ****
 37  38 0
 6-311+G(2d,p)
 ****
 1  2  3  4  5  17  18  19  20  21  22  23  24  25 0
 3-21G
 ****
 27  28  29  34  36  39  40  41  42  43  44  45  46 0
 3-21G
 ****


