%nproc=1
%NoSave
%Mem=1900MB
#P OB98/GEN NMR

erre ene a

0 1
  C     1219.889    -612.843    -273.168
  O     1221.225    -613.283    -272.893
  P     1222.327    -612.163    -272.542
  C     1222.232    -612.753    -270.000
  O     1222.156    -611.734    -271.009
  C     1222.077    -612.127    -268.602
  O     1220.733    -611.619    -268.387
  C     1222.342    -613.109    -267.485
  O     1223.738    -613.218    -267.208
  C     1221.646    -612.397    -266.311
  O     1222.496    -611.347    -265.807
  C     1220.408    -611.794    -266.988
  N     1215.835    -612.219    -264.835
  C     1216.788    -611.197    -264.741
  N     1216.447    -610.143    -263.955
  N     1217.929    -611.226    -265.354
  C     1218.119    -612.353    -266.095
  C     1217.278    -613.414    -266.263
  C     1215.993    -613.398    -265.569
  O     1215.134    -614.241    -265.602
  N     1217.799    -614.364    -267.107
  C     1218.987    -613.865    -267.445
  N     1219.218    -612.639    -266.870
  O     1221.790    -610.876    -273.345
  O     1223.734    -612.524    -272.966
  H     1221.971    -610.890    -265.118
  H     1222.533    -610.303    -273.587
  H     1214.976    -612.158    -264.338
  H     1219.670    -614.359    -268.139
  H     1220.145    -610.808    -266.587
  H     1221.431    -613.088    -265.486
  H     1215.564    -610.050    -263.514
  H     1221.873    -614.068    -267.660
  H     1217.120    -609.352    -263.927
  H     1222.785    -611.279    -268.545
  H     1223.202    -613.257    -270.081
  H     1221.452    -613.506    -270.206
  P     1224.620    -614.144    -268.200
  C     1226.005    -612.059    -268.974
  O     1225.169    -613.146    -269.357
  O     1223.519    -615.016    -268.943
  O     1225.633    -614.978    -267.539
  H     1223.859    -615.898    -269.172
  H     1226.409    -611.615    -269.897
  H     1226.846    -612.448    -268.381
  H     1225.437    -611.326    -268.419
  H     1219.272    -613.690    -273.383
  H     1219.897    -612.184    -274.011
  H     1219.501    -612.326    -272.315

 3  4  5  6  7  8  9  10  11  12  23  26  30  31 0
 6-311+G(2d,p)
 ****
 33  35  36  37  38 0
 6-311+G(2d,p)
 ****
 1  2  13  14  15  16  17  18  19  20  21  22  24  25 0
 3-21G
 ****
 27  28  29  32  34  39  40  41  42  43  44  45  46  47  48  49 0
 3-21G
 ****


