%nproc=1
%NoSave
%Mem=1900MB
#P OB98/GEN NMR

erre ene a

0 1
  C     -413.747    -404.904    -172.105
  O     -414.759    -405.698    -172.693
  H     -412.830    -405.496    -172.053
  H     -414.043    -404.625    -171.090
  H     -413.558    -404.007    -172.694
  P     -416.110    -404.986    -173.180
  C     -414.843    -404.043    -175.226
  O     -415.685    -403.755    -174.118
  C     -415.632    -403.979    -176.541
  O     -416.162    -402.642    -176.700
  C     -414.728    -404.252    -177.749
  O     -415.451    -404.816    -178.840
  C     -414.257    -402.858    -178.136
  O     -413.832    -402.770    -179.497
  C     -415.489    -402.020    -177.814
  N     -415.003    -397.244    -179.527
  C     -415.152    -398.415    -180.244
  N     -415.170    -398.296    -181.595
  N     -415.242    -399.595    -179.686
  C     -415.128    -399.568    -178.338
  C     -414.962    -398.472    -177.522
  C     -414.895    -397.165    -178.147
  O     -414.745    -396.097    -177.558
  N     -414.882    -398.843    -176.199
  C     -415.002    -400.158    -176.220
  N     -415.178    -400.639    -177.493
  O     -416.646    -404.249    -171.859
  O     -417.148    -405.901    -173.759
  H     -413.561    -401.846    -179.657
  H     -417.603    -404.083    -171.933
  H     -414.966    -396.357    -180.004
  H     -414.978    -400.795    -175.342
  H     -416.183    -402.009    -178.660
  H     -413.394    -402.604    -177.512
  H     -414.910    -397.439    -182.056
  H     -413.886    -404.897    -177.508
  H     -414.964    -399.150    -182.125
  H     -416.491    -404.663    -176.491
  H     -414.444    -405.047    -175.067
  H     -413.995    -403.354    -175.249
  P     -415.490    -406.414    -178.992
  C     -418.011    -406.819    -178.283
  O     -416.631    -407.016    -178.052
  O     -414.135    -406.894    -178.300
  O     -415.599    -406.898    -180.411
  H     -413.544    -407.308    -178.958
  H     -418.575    -407.317    -177.522
  H     -418.273    -407.219    -179.240
  H     -418.230    -405.772    -178.262

 6  7  8  9  10  11  12  13  14  15  26  29  33  34 0
 6-311+G(2d,p)
 ****
 36  38  39  40  41 0
 6-311+G(2d,p)
 ****
 1  2  3  4  5  16  17  18  19  20  21  22  23  24  25 0
 3-21G
 ****
 27  28  30  31  32  35  37  42  43  44  45  46  47 0
 3-21G
 ****
 48  49 0
 3-21G
 ****


