%nproc=1
%NoSave
%Mem=1900MB
#P OB98/GEN NMR

erre ene a

0 1
  C     -601.702     116.556     429.984
  O     -600.755     117.584     429.650
  P     -600.341     117.684     428.104
  C     -598.517     115.895     427.630
  O     -599.902     116.219     427.602
  C     -598.275     114.401     427.834
  O     -598.856     113.630     426.733
  C     -596.794     114.010     427.910
  O     -596.690     112.918     428.830
  C     -596.500     113.503     426.516
  O     -595.332     112.690     426.480
  C     -597.811     112.766     426.219
  N     -598.279     109.072     422.791
  C     -597.968     109.011     424.150
  N     -597.803     107.785     424.657
  N     -597.827     110.066     424.916
  C     -598.065     111.232     424.257
  C     -598.390     111.434     422.942
  C     -598.512     110.265     422.092
  O     -598.790     110.265     420.899
  N     -598.565     112.771     422.658
  C     -598.282     113.384     423.802
  N     -598.022     112.489     424.809
  O     -598.966     118.510     428.136
  O     -601.365     118.363     427.247
  H     -595.258     112.310     425.582
  H     -599.134     119.442     427.907
  H     -598.356     108.238     422.256
  H     -598.287     114.437     423.955
  H     -597.869     111.793     426.748
  H     -596.365     114.350     425.821
  H     -597.947     106.924     424.134
  H     -596.127     114.831     428.221
  H     -597.624     107.693     425.662
  H     -598.792     114.096     428.757
  H     -598.026     116.453     428.442
  H     -598.053     116.253     426.700
  P     -596.245     113.238     430.346
  C     -593.820     112.296     430.176
  O     -594.653     113.440     430.320
  O     -596.415     111.828     431.080
  O     -597.036     114.307     431.015
  H     -596.769     111.967     431.979
  H     -592.876     112.626     429.717
  H     -594.297     111.545     429.530
  H     -593.622     111.877     431.155
  H     -601.902     116.583     431.035
  H     -601.298     115.600     429.723
  H     -602.611     116.719     429.443

 3  4  5  6  7  8  9  10  11  12  23  26  30  31 0
 6-311+G(2d,p)
 ****
 33  35  36  37  38 0
 6-311+G(2d,p)
 ****
 1  2  13  14  15  16  17  18  19  20  21  22  24  25 0
 3-21G
 ****
 27  28  29  32  34  39  40  41  42  43  44  45  46  47  48  49 0
 3-21G
 ****


