%nproc=1
%NoSave
%Mem=1900MB
#P OB98/GEN NMR

erre ene a

0 1
  C      571.879      89.839     627.198
  O      570.714      89.336     626.575
  H      571.779      89.714     628.279
  H      571.994      90.903     626.979
  H      572.764      89.288     626.863
  P      570.642      89.303     624.974
  C      570.867      86.749     624.786
  O      571.463      88.007     624.502
  C      571.716      85.611     624.216
  O      571.861      85.814     622.787
  C      573.115      85.523     624.827
  O      573.466      84.149     624.959
  C      573.997      86.179     623.778
  O      575.343      85.701     623.829
  C      573.271      85.811     622.486
  N      576.640      87.046     618.928
  C      576.608      85.967     619.791
  N      577.637      85.094     619.715
  N      575.646      85.757     620.656
  C      574.675      86.701     620.613
  C      574.595      87.814     619.808
  C      575.666      88.035     618.866
  O      575.756      88.981     618.089
  N      573.465      88.542     620.084
  C      572.865      87.876     621.051
  N      573.564      86.756     621.418
  O      571.041      90.571     624.290
  O      569.124      88.912     624.662
  H      575.768      86.119     624.606
  H      568.605      89.705     624.423
  H      577.407      87.159     618.290
  H      571.935      88.159     621.527
  H      573.548      84.815     622.116
  H      574.011      87.265     623.927
  H      578.401      85.179     619.064
  H      573.193      86.028     625.798
  H      577.622      84.283     620.323
  H      571.166      84.672     624.353
  H      569.867      86.732     624.332
  H      570.761      86.634     625.869
  P      573.244      83.430     626.380
  C      571.371      81.743     625.841
  O      571.704      82.977     626.472
  O      573.763      84.166     627.566
  O      574.003      82.028     626.187
  H      574.341      81.735     627.055
  H      570.327      81.548     625.968
  H      571.938      80.951     626.284
  H      571.598      81.803     624.797

 6  7  8  9  10  11  12  13  14  15  26  29  33  34 0
 6-311+G(2d,p)
 ****
 36  38  39  40  41 0
 6-311+G(2d,p)
 ****
 1  2  3  4  5  16  17  18  19  20  21  22  23  24  25 0
 3-21G
 ****
 27  28  30  31  32  35  37  42  43  44  45  46  47 0
 3-21G
 ****
 48  49 0
 3-21G
 ****


