%nproc=1
%NoSave
%Mem=1900MB
#P OB98/GEN NMR

erre ene a

0 1
  C     -232.824     205.956    -177.045
  O     -233.942     205.279    -176.502
  H     -232.252     205.254    -177.657
  H     -232.184     206.329    -176.240
  H     -233.153     206.787    -177.674
  P     -234.931     206.145    -175.583
  C     -235.013     204.943    -173.277
  O     -234.420     205.964    -174.073
  C     -234.909     205.319    -171.802
  O     -233.640     205.965    -171.550
  C     -235.969     206.314    -171.342
  O     -237.222     205.699    -171.114
  C     -235.324     206.866    -170.081
  O     -235.555     206.010    -168.955
  C     -233.833     206.877    -170.443
  N     -230.906     210.791    -168.972
  C     -231.100     209.565    -168.447
  N     -231.891     208.570    -168.907
  C     -232.493     208.938    -170.049
  C     -232.388     210.152    -170.705
  C     -231.544     211.112    -170.121
  N     -231.364     212.372    -170.644
  N     -233.191     210.169    -171.830
  C     -233.766     208.984    -171.856
  N     -233.372     208.204    -170.803
  O     -236.293     205.305    -175.628
  O     -235.132     207.556    -176.023
  H     -235.076     205.179    -169.139
  H     -236.906     205.714    -176.269
  H     -230.560     209.354    -167.526
  H     -234.473     208.647    -172.607
  H     -233.202     206.525    -169.618
  H     -235.724     207.850    -169.839
  H     -236.065     207.125    -172.074
  H     -234.951     204.401    -171.202
  H     -234.485     204.001    -173.448
  H     -236.060     204.826    -173.574
  H     -230.797     213.031    -170.135
  H     -231.924     212.659    -171.437
  P     -238.540     206.572    -171.382
  C     -238.651     207.178    -168.847
  O     -238.655     207.639    -170.192
  O     -239.742     205.552    -171.096
  O     -238.627     207.162    -172.749
  H     -240.482     205.732    -171.708
  H     -238.734     208.013    -168.183
  H     -237.737     206.657    -168.651
  H     -239.478     206.517    -168.694

 6  7  8  9  10  11  12  13  14  15  25  28  32  33  34  35 0
 6-311+G(2d,p)
 ****
 36  37  40 0
 6-311+G(2d,p)
 ****
 1  2  3  4  5  16  17  18  19  20  21  22  23  24 0
 3-21G
 ****
 26  27  29  30  31  38  39 41  42  43  44  45  46  47  48 0
 3-21G
 ****


