%nproc=1
%NoSave
%Mem=1900MB
#P OB98/GEN NMR

erre ene a

0 1
  C      102.664      59.940     -87.726
  O      101.368      60.502     -87.696
  H      102.738      59.188     -86.935
  H      103.427      60.704     -87.554
  H      102.839      59.451     -88.689
  P      101.091      61.808     -88.588
  C       99.577      62.814     -86.754
  O      100.754      62.980     -87.541
  C       99.817      63.260     -85.310
  O      100.676      62.319     -84.635
  C      100.525      64.600     -85.192
  O       99.743      65.704     -85.596
  C      101.084      64.552     -83.777
  O      100.158      64.986     -82.787
  C      101.371      63.041     -83.599
  N      102.800      62.752     -83.599
  C      103.443      62.876     -82.372
  O      102.873      63.227     -81.339
  N      104.786      62.621     -82.374
  C      105.539      62.314     -83.470
  O      106.750      62.138     -83.413
  C      104.808      62.223     -84.744
  C      103.491      62.443     -84.751
  O      100.066      61.651     -89.671
  O      102.540      62.213     -89.129
  H       99.373      64.408     -82.855
  H      102.474      62.833     -89.894
  H      105.267      62.695     -81.492
  H      105.374      61.984     -85.635
  H      102.930      62.384     -85.681
  H      100.958      62.688     -82.645
  H      101.975      65.177     -83.678
  H      101.392      64.585     -85.864
  H       98.853      63.275     -84.788
  H       99.318      61.750     -86.763
  H       98.753      63.382     -87.198
  P      100.093      66.609     -86.865
  C      101.152      68.354     -85.258
  O      101.290      67.603     -86.459
  O       98.939      67.157     -87.639
  O      100.848      65.543     -87.814
  H      100.630      65.770     -88.739
  H      102.018      68.966     -85.119
  H      101.051      67.685     -84.429
  H      100.283      68.975     -85.324

 6  7  8  9  10  11  12  13  14  15  16  26  31  32  33  34  35 0
 6-311+G(2d,p)
 ****
 36  37 0
 6-311+G(2d,p)
 ****
 1  2  3  4  5  17  18  19  20  21  22  23  24  25 0
 3-21G
 ****
 27  28  29  30  38  39  40  41  42  43  44  45 0
 3-21G
 ****


