%nproc=1
%NoSave
%Mem=1900MB
#P OB98/GEN NMR

erre ene a

0 1
  C      241.639    -231.073     468.166
  O      240.454    -231.828     467.993
  H      241.402    -230.015     468.049
  H      242.376    -231.359     467.414
  H      242.050    -231.235     469.167
  P      240.588    -233.418     468.171
  C      240.591    -235.430     466.510
  O      240.657    -234.019     466.686
  C      240.930    -235.804     465.063
  O      239.841    -235.358     464.201
  C      242.213    -235.132     464.535
  O      242.812    -235.994     463.555
  C      241.658    -233.899     463.843
  O      242.624    -233.346     462.975
  C      240.426    -234.505     463.194
  N      238.703    -231.920     459.146
  C      239.611    -232.921     459.263
  N      240.007    -233.561     460.379
  C      239.345    -233.094     461.454
  C      238.397    -232.088     461.488
  C      238.084    -231.480     460.259
  N      237.179    -230.449     460.140
  N      237.958    -231.879     462.787
  C      238.625    -232.751     463.513
  N      239.471    -233.513     462.752
  O      239.138    -233.852     468.692
  O      241.669    -233.879     469.086
  H      242.958    -234.017     462.350
  H      239.124    -233.869     469.665
  H      240.079    -233.240     458.335
  H      238.548    -232.872     464.588
  H      240.670    -235.134     462.326
  H      241.389    -233.127     464.571
  H      242.939    -234.909     465.327
  H      240.983    -236.894     464.971
  H      239.577    -235.762     466.758
  H      241.304    -235.916     467.186
  H      237.033    -230.047     459.226
  H      236.729    -230.076     460.970
  P      244.298    -236.561     463.816
  C      246.750    -236.031     463.085
  O      245.382    -235.641     463.063
  O      244.310    -237.901     462.933
  O      244.622    -236.884     465.242
  H      244.694    -238.626     463.447
  H      247.333    -235.317     462.542
  H      246.854    -236.994     462.631
  H      247.092    -236.075     464.098

 6  7  8  9  10  11  12  13  14  15  25  28  32  33  34  35 0
 6-311+G(2d,p)
 ****
 36  37  40 0
 6-311+G(2d,p)
 ****
 1  2  3  4  5  16  17  18  19  20  21  22  23  24 0
 3-21G
 ****
 26  27  29  30  31  38  39 41  42  43  44  45  46  47  48 0
 3-21G
 ****


