%nproc=1
%NoSave
%Mem=1900MB
#P OB98/GEN NMR

erre ene a

0 1
  C      533.325     134.891    1304.311
  O      534.583     134.879    1303.663
  P      534.771     135.805    1302.363
  C      537.035     136.738    1303.326
  O      535.733     137.003    1302.821
  C      538.081     137.431    1302.458
  O      537.759     138.823    1302.281
  C      539.496     137.407    1303.028
  O      540.118     136.141    1302.872
  C      540.152     138.536    1302.246
  O      540.546     138.091    1300.944
  C      538.988     139.545    1302.132
  N      539.074     140.653    1303.100
  C      539.040     141.938    1302.562
  O      538.940     142.175    1301.349
  N      539.149     142.963    1303.463
  C      539.352     142.828    1304.817
  O      539.481     143.780    1305.567
  C      539.407     141.449    1305.309
  C      539.274     140.434    1304.444
  O      533.312     136.471    1302.255
  O      535.209     135.043    1301.150
  H      532.874     136.519    1303.129
  H      540.685     138.890    1300.398
  H      539.102     143.899    1303.113
  H      539.573     141.296    1306.367
  H      539.332     139.419    1304.795
  H      538.964     139.990    1301.123
  H      541.037     138.938    1302.743
  H      539.458     137.672    1304.098
  H      538.074     136.949    1301.460
  H      537.207     135.670    1303.335
  H      537.094     137.118    1304.356
  P      540.725     135.470    1304.206
  C      538.387     134.870    1305.208
  O      539.579     135.597    1305.335
  O      541.828     136.554    1304.629
  O      541.253     134.087    1303.993
  H      541.516     137.470    1304.541
  H      537.922     134.811    1306.191
  H      538.571     133.858    1304.837
  H      537.697     135.388    1304.526
  H      533.351     134.231    1305.153
  H      532.568     134.567    1303.627
  H      533.104     135.884    1304.643

 3  4  5  6  7  8  9  10  11  12  13  24  28  29  30  31  32 0
 6-311+G(2d,p)
 ****
 33  34 0
 6-311+G(2d,p)
 ****
 1  2  14  15  16  17  18  19  20  21  22  23  25  26  27 0
 3-21G
 ****
 35  36  37  38  39  40  41  42  43  44  45 0
 3-21G
 ****


