%nproc=1
%NoSave
%Mem=1900MB
#P OB98/GEN NMR

erre ene a

0 1
  C     -420.435      98.420     465.614
  O     -420.193      98.031     464.277
  H     -420.261      97.561     466.266
  H     -421.474      98.740     465.728
  H     -419.761      99.228     465.913
  P     -420.200      99.151     463.133
  C     -422.468      98.438     462.123
  O     -421.736      99.458     462.791
  C     -423.965      98.555     462.433
  O     -424.308      99.970     462.550
  C     -424.885      97.955     461.350
  O     -426.071      97.492     462.012
  C     -425.168      99.182     460.501
  O     -426.206      98.980     459.581
  C     -425.385     100.212     461.621
  N     -425.393     101.607     461.192
  C     -426.591     102.308     461.294
  O     -427.646     101.838     461.720
  N     -426.554     103.614     460.873
  C     -425.457     104.270     460.391
  O     -425.477     105.449     460.059
  C     -424.226     103.475     460.302
  C     -424.245     102.201     460.706
  O     -419.331      98.877     461.951
  O     -419.738     100.478     463.905
  H     -418.797     100.659     463.712
  H     -425.857      98.480     458.811
  H     -427.411     104.136     460.943
  H     -423.343     103.963     459.911
  H     -423.346     101.593     460.662
  H     -426.322      99.995     462.148
  H     -424.285      99.435     459.905
  H     -424.425      97.124     460.808
  H     -424.159      98.098     463.414
  H     -422.093      97.468     462.465
  H     -422.299      98.526     461.043
  P     -426.353      95.950     462.347
  C     -428.138      95.804     460.475
  O     -426.948      95.252     461.025
  O     -427.191      95.732     463.567
  O     -424.905      95.280     462.520
  H     -424.972      94.503     463.102
  H     -428.421      95.248     459.606
  H     -427.966      96.825     460.205
  H     -428.923      95.754     461.201

 6  7  8  9  10  11  12  13  14  15  16  27  31  32  33  34  35 0
 6-311+G(2d,p)
 ****
 36  37 0
 6-311+G(2d,p)
 ****
 1  2  3  4  5  17  18  19  20  21  22  23  24  25 0
 3-21G
 ****
 26  28  29  30  38  39  40  41  42  43  44  45 0
 3-21G
 ****


