%nproc=1
%NoSave
%Mem=1900MB
#P OB98/GEN NMR

erre ene a

0 1
  C      -42.925    -901.748    -292.030
  O      -42.618    -900.606    -292.799
  H      -42.806    -901.505    -290.973
  H      -42.230    -902.554    -292.284
  H      -43.953    -902.077    -292.205
  P      -43.095    -900.602    -294.332
  C      -40.768    -901.343    -295.210
  O      -41.781    -900.349    -295.224
  C      -39.451    -900.764    -295.721
  O      -39.575    -900.520    -297.164
  C      -39.046    -899.438    -295.057
  O      -37.618    -899.409    -294.914
  C      -39.431    -898.408    -296.107
  O      -38.700    -897.195    -295.967
  C      -39.122    -899.176    -297.389
  N      -38.422    -895.852    -301.078
  C      -37.529    -896.396    -300.184
  N      -36.256    -895.952    -300.239
  N      -37.856    -897.312    -299.309
  C      -39.156    -897.680    -299.372
  C      -40.139    -897.214    -300.206
  C      -39.775    -896.194    -301.166
  O      -40.524    -895.651    -301.966
  N      -41.346    -897.799    -299.919
  C      -41.093    -898.607    -298.902
  N      -39.774    -898.565    -298.537
  O      -43.897    -899.221    -294.445
  O      -43.930    -901.765    -294.744
  H      -37.799    -897.332    -296.326
  H      -44.850    -899.379    -294.304
  H      -38.126    -895.137    -301.725
  H      -41.825    -899.215    -298.389
  H      -38.046    -899.201    -297.612
  H      -40.501    -898.176    -296.029
  H      -35.922    -895.276    -300.908
  H      -39.518    -899.260    -294.089
  H      -35.578    -896.371    -299.613
  H      -38.663    -901.522    -295.596
  H      -41.073    -902.170    -295.859
  H      -40.648    -901.725    -294.193
  P      -36.981    -900.095    -293.609
  C      -37.587    -898.035    -292.121
  O      -36.575    -898.934    -292.576
  O      -35.569    -900.625    -294.133
  O      -37.813    -901.199    -293.043
  H      -35.341    -901.461    -293.675
  H      -37.157    -897.327    -291.444
  H      -38.355    -898.587    -291.620
  H      -38.007    -897.518    -292.958

 6  7  8  9  10  11  12  13  14  15  26  29  33  34 0
 6-311+G(2d,p)
 ****
 36  38  39  40  41 0
 6-311+G(2d,p)
 ****
 1  2  3  4  5  16  17  18  19  20  21  22  23  24  25 0
 3-21G
 ****
 27  28  30  31  32  35  37  42  43  44  45  46  47 0
 3-21G
 ****
 48  49 0
 3-21G
 ****


