%nproc=1
%NoSave
%Mem=1900MB
#P OB98/GEN NMR

erre ene a

0 1
  C       31.435    -229.078     -76.018
  O       32.025    -229.879     -75.011
  H       30.389    -228.903     -75.757
  H       31.479    -229.594     -76.981
  H       31.950    -228.115     -76.084
  P       33.567    -230.272     -75.224
  C       34.834    -231.532     -77.103
  O       33.597    -231.318     -76.443
  C       34.635    -232.413     -78.335
  O       33.680    -231.817     -79.239
  C       35.902    -232.661     -79.141
  O       36.672    -233.714     -78.579
  C       35.324    -233.021     -80.502
  O       34.895    -234.396     -80.548
  C       34.123    -232.068     -80.599
  N       33.468    -229.430     -84.855
  C       32.976    -230.666     -84.489
  N       32.242    -231.321     -85.416
  N       33.193    -231.218     -83.324
  C       33.969    -230.463     -82.510
  C       34.503    -229.218     -82.751
  C       34.230    -228.605     -84.037
  O       34.586    -227.488     -84.397
  N       35.222    -228.769     -81.675
  C       35.153    -229.755     -80.800
  N       34.418    -230.812     -81.268
  O       33.898    -231.187     -73.949
  O       34.511    -229.124     -75.335
  H       35.670    -234.977     -80.456
  H       34.838    -231.077     -73.715
  H       33.256    -229.052     -85.761
  H       35.617    -229.750     -79.823
  H       33.281    -232.522     -81.139
  H       36.060    -232.896     -81.300
  H       32.326    -231.111     -86.403
  H       36.496    -231.741     -79.229
  H       31.896    -232.236     -85.164
  H       34.206    -233.364     -77.991
  H       35.526    -232.026     -76.415
  H       35.256    -230.564     -77.399
  P       38.241    -233.754     -78.916
  C       39.362    -233.441     -81.244
  O       38.360    -234.096     -80.478
  O       38.737    -235.100     -78.207
  O       39.006    -232.559     -78.458
  H       39.709    -235.090     -78.112
  H       39.311    -233.776     -82.259
  H       40.326    -233.671     -80.841
  H       39.204    -232.383     -81.209

 6  7  8  9  10  11  12  13  14  15  26  29  33  34 0
 6-311+G(2d,p)
 ****
 36  38  39  40  41 0
 6-311+G(2d,p)
 ****
 1  2  3  4  5  16  17  18  19  20  21  22  23  24  25 0
 3-21G
 ****
 27  28  30  31  32  35  37  42  43  44  45  46  47 0
 3-21G
 ****
 48  49 0
 3-21G
 ****


