%nproc=1
%NoSave
%Mem=1900MB
#P OB98/GEN NMR

erre ene a

0 1
  C     -342.478    -534.757    -333.296
  O     -343.891    -534.712    -333.304
  P     -344.671    -533.413    -332.772
  C     -346.926    -533.812    -333.946
  O     -346.223    -533.818    -332.715
  C     -347.689    -535.120    -334.126
  O     -346.842    -536.153    -334.696
  C     -348.196    -535.732    -332.830
  O     -349.198    -535.022    -332.120
  C     -348.539    -537.144    -333.274
  O     -349.814    -537.199    -333.914
  C     -347.405    -537.427    -334.300
  N     -346.376    -538.325    -333.748
  C     -346.795    -539.638    -333.521
  O     -347.942    -540.048    -333.753
  N     -345.854    -540.479    -332.972
  C     -344.588    -540.120    -332.622
  O     -343.803    -540.912    -332.098
  C     -344.217    -538.714    -332.873
  C     -345.117    -537.897    -333.423
  O     -344.394    -532.158    -333.526
  O     -344.272    -533.349    -331.219
  H     -349.964    -538.123    -334.189
  H     -344.529    -534.137    -330.707
  H     -346.143    -541.421    -332.792
  H     -343.213    -538.416    -332.604
  H     -344.869    -536.862    -333.618
  H     -347.822    -537.881    -335.211
  H     -348.567    -537.846    -332.433
  H     -347.339    -535.814    -332.138
  H     -348.507    -534.952    -334.844
  H     -346.200    -533.704    -334.771
  H     -347.605    -532.951    -333.982
  P     -349.481    -535.243    -330.562
  C     -349.294    -532.888    -329.503
  O     -350.150    -533.898    -329.975
  O     -348.396    -535.881    -329.748
  O     -350.750    -536.238    -330.605
  H     -350.742    -536.819    -329.822
  H     -349.899    -532.065    -329.094
  H     -348.685    -532.491    -330.314
  H     -348.654    -533.260    -328.704
  H     -342.149    -535.698    -333.686
  H     -342.123    -534.643    -332.293
  H     -342.092    -533.965    -333.903

 3  4  5  6  7  8  9  10  11  12  13  23  28  29  30  31  32 0
 6-311+G(2d,p)
 ****
 33  34 0
 6-311+G(2d,p)
 ****
 1  2  14  15  16  17  18  19  20  21  22  24  25  26  27 0
 3-21G
 ****
 35  36  37  38  39  40  41  42  43  44  45 0
 3-21G
 ****


