%nproc=1
%NoSave
%Mem=1900MB
#P OB98/GEN NMR

erre ene a

0 1
  C     -208.641    -513.457     365.420
  O     -207.577    -513.154     366.296
  P     -207.644    -511.862     367.244
  C     -208.288    -513.302     369.278
  O     -208.667    -512.223     368.426
  C     -208.378    -512.873     370.738
  O     -207.534    -511.716     370.994
  C     -209.766    -512.424     371.173
  O     -210.787    -513.396     371.196
  C     -209.455    -511.712     372.476
  O     -209.306    -512.636     373.552
  C     -208.095    -511.043     372.150
  N     -208.232    -509.606     371.926
  C     -208.099    -508.801     373.051
  O     -207.879    -509.233     374.178
  N     -208.257    -507.456     372.845
  C     -208.577    -506.858     371.657
  O     -208.749    -505.649     371.555
  C     -208.721    -507.764     370.507
  C     -208.548    -509.080     370.686
  O     -207.936    -510.575     366.543
  O     -206.232    -511.885     367.996
  H     -210.176    -513.056     373.701
  H     -206.068    -512.686     368.528
  H     -208.179    -506.852     373.648
  H     -208.961    -507.319     369.549
  H     -208.650    -509.763     369.858
  H     -207.383    -511.195     372.978
  H     -210.249    -511.013     372.762
  H     -210.113    -511.653     370.465
  H     -208.006    -513.687     371.361
  H     -207.254    -513.588     369.049
  H     -208.929    -514.163     369.076
  P     -212.349    -513.041     371.198
  C     -212.796    -513.169     368.645
  O     -212.711    -512.356     369.793
  O     -212.894    -512.405     372.438
  O     -213.010    -514.497     371.033
  H     -213.866    -514.507     371.489
  H     -213.006    -512.535     367.782
  H     -213.612    -513.893     368.752
  H     -211.850    -513.692     368.478
  H     -208.412    -514.349     364.876
  H     -208.780    -512.647     364.735
  H     -209.538    -513.604     365.985

 3  4  5  6  7  8  9  10  11  12  13  23  28  29  30  31  32 0
 6-311+G(2d,p)
 ****
 33  34 0
 6-311+G(2d,p)
 ****
 1  2  14  15  16  17  18  19  20  21  22  24  25  26  27 0
 3-21G
 ****
 35  36  37  38  39  40  41  42  43  44  45 0
 3-21G
 ****


