%nproc=1
%NoSave
%Mem=1900MB
#P OB98/GEN NMR

erre ene a

0 1
  C       18.840     141.558    -194.578
  O       18.235     140.646    -193.682
  H       19.041     141.043    -195.521
  H       19.786     141.920    -194.166
  H       18.169     142.401    -194.772
  P       17.882     141.208    -192.221
  C       18.305     138.886    -191.144
  O       18.657     140.261    -191.181
  C       19.557     138.016    -191.127
  O       20.334     138.216    -192.330
  C       20.494     138.281    -189.955
  O       20.066     137.593    -188.791
  C       21.811     137.749    -190.500
  O       21.892     136.315    -190.380
  C       21.743     138.172    -191.975
  N       26.064     140.775    -191.747
  C       25.799     139.458    -191.436
  N       26.832     138.739    -190.941
  N       24.630     138.894    -191.586
  C       23.687     139.743    -192.060
  C       23.828     141.064    -192.420
  C       25.136     141.664    -192.279
  O       25.450     142.807    -192.596
  N       22.644     141.583    -192.875
  C       21.781     140.592    -192.756
  N       22.363     139.458    -192.249
  O       16.348     140.790    -192.021
  O       18.082     142.673    -192.033
  H       21.234     135.907    -190.968
  H       15.910     141.451    -191.452
  H       26.988     141.146    -191.627
  H       20.734     140.645    -193.020
  H       22.222     137.443    -192.636
  H       22.665     138.157    -189.956
  H       27.626     139.187    -190.503
  H       20.585     139.358    -189.766
  H       26.642     137.777    -190.691
  H       19.229     136.968    -191.126
  H       17.712     138.647    -192.033
  H       17.700     138.693    -190.251
  P       19.995     138.422    -187.418
  C       19.465     136.071    -186.436
  O       20.070     137.341    -186.234
  O       18.476     138.919    -187.365
  O       20.961     139.554    -187.323
  H       18.385     139.649    -186.723
  H       19.600     135.469    -185.562
  H       19.920     135.589    -187.276
  H       18.419     136.200    -186.622

 6  7  8  9  10  11  12  13  14  15  26  29  33  34 0
 6-311+G(2d,p)
 ****
 36  38  39  40  41 0
 6-311+G(2d,p)
 ****
 1  2  3  4  5  16  17  18  19  20  21  22  23  24  25 0
 3-21G
 ****
 27  28  30  31  32  35  37  42  43  44  45  46  47 0
 3-21G
 ****
 48  49 0
 3-21G
 ****


