%nproc=1
%NoSave
%Mem=1900MB
#P OB98/GEN NMR

erre ene a

0 1
  C      940.747    -840.057    -924.030
  O      939.913    -839.499    -923.006
  P      938.410    -840.060    -922.912
  C      937.257    -838.747    -924.896
  O      937.773    -839.971    -924.395
  C      936.304    -838.985    -926.064
  O      935.182    -839.791    -925.607
  C      935.684    -837.727    -926.666
  O      935.197    -838.033    -927.997
  C      934.516    -837.477    -925.751
  O      933.546    -836.606    -926.331
  C      934.020    -838.905    -925.465
  N      933.463    -839.089    -924.083
  C      932.084    -839.057    -923.908
  O      931.300    -838.930    -924.836
  N      931.618    -839.191    -922.626
  C      932.402    -839.358    -921.523
  O      931.933    -839.351    -920.371
  C      933.857    -839.499    -921.751
  C      934.298    -839.353    -922.998
  O      937.651    -838.913    -922.092
  O      938.295    -841.397    -922.266
  H      934.038    -835.784    -926.565
  H      937.471    -839.212    -921.189
  H      930.633    -839.112    -922.482
  H      934.481    -839.704    -920.889
  H      935.382    -839.444    -923.173
  H      933.241    -839.234    -926.167
  H      934.862    -837.005    -924.815
  H      936.356    -836.859    -926.714
  H      936.844    -839.564    -926.864
  H      938.081    -838.092    -925.166
  H      936.710    -838.234    -924.077
  P      936.222    -837.909    -929.240
  C      936.203    -835.335    -929.433
  O      936.958    -836.476    -929.062
  O      935.658    -838.175    -930.574
  O      937.385    -838.937    -928.837
  H      937.894    -839.194    -929.630
  H      936.542    -834.489    -928.858
  H      935.145    -835.471    -929.313
  H      936.424    -835.122    -930.513
  H      941.715    -839.604    -923.988
  H      940.308    -839.872    -924.988
  H      940.840    -841.112    -923.878

 3  4  5  6  7  8  9  10  11  12  13  23  28  29  30  31  32 0
 6-311+G(2d,p)
 ****
 33  34 0
 6-311+G(2d,p)
 ****
 1  2  14  15  16  17  18  19  20  21  22  24  25  26  27 0
 3-21G
 ****
 35  36  37  38  39  40  41  42  43  44  45 0
 3-21G
 ****


