%nproc=1
%NoSave
%Mem=1900MB
#P OB98/GEN NMR

erre ene a

0 1
  C       96.008      85.755     463.250
  O       96.759      86.771     462.596
  P       96.169      88.271     462.661
  C       96.383      88.424     460.059
  O       95.562      88.576     461.208
  C       95.621      88.893     458.813
  O       94.702      87.862     458.378
  C       94.784      90.142     459.024
  O       95.588      91.303     458.928
  C       93.754      90.015     457.910
  O       94.300      90.461     456.650
  C       93.491      88.503     457.890
  N       88.581      89.263     458.823
  C       89.463      90.000     458.052
  N       88.952      91.078     457.404
  N       90.733      89.712     457.927
  C       91.104      88.629     458.646
  C       90.326      87.822     459.452
  C       88.919      88.121     459.534
  O       88.079      87.449     460.125
  N       91.065      86.825     460.034
  C       92.280      87.002     459.553
  N       92.353      88.078     458.679
  O       97.496      89.175     462.738
  O       95.228      88.533     463.798
  H       93.602      90.462     455.973
  H       97.678      89.431     463.659
  H       87.607      89.524     458.863
  H       93.132      86.378     459.775
  H       93.321      88.118     456.869
  H       92.858      90.616     458.096
  H       87.987      91.364     457.472
  H       94.277      90.105     459.999
  H       89.583      91.625     456.844
  H       96.353      89.046     458.011
  H       96.656      87.370     459.944
  H       97.304      89.019     460.194
  P       94.930      92.707     459.352
  C       95.542      93.739     457.045
  O       94.535      93.469     458.005
  O       96.171      93.544     459.913
  O       93.836      92.592     460.372
  H       95.878      94.097     460.662
  H       95.089      93.748     456.044
  H       96.336      92.982     457.072
  H       95.978      94.724     457.251
  H       96.504      84.814     463.133
  H       95.031      85.700     462.818
  H       95.925      85.987     464.291

 3  4  5  6  7  8  9  10  11  12  23  26  30  31 0
 6-311+G(2d,p)
 ****
 33  35  36  37  38 0
 6-311+G(2d,p)
 ****
 1  2  13  14  15  16  17  18  19  20  21  22  24  25 0
 3-21G
 ****
 27  28  29  32  34  39  40  41  42  43  44  45  46  47  48  49 0
 3-21G
 ****


