%nproc=1
%NoSave
%Mem=1900MB
#P OB98/GEN NMR

erre ene a

0 1
  C       39.591     -50.310     199.618
  O       40.496     -51.386     199.804
  P       40.087     -52.506     200.883
  C       41.899     -52.100     202.721
  O       41.436     -52.907     201.649
  C       43.322     -52.503     203.090
  O       43.346     -53.839     203.639
  C       44.296     -52.512     201.915
  O       44.762     -51.202     201.647
  C       45.379     -53.462     202.422
  O       46.292     -52.777     203.304
  C       44.555     -54.508     203.185
  N       45.668     -59.357     202.291
  C       46.344     -58.415     203.045
  N       47.449     -58.840     203.690
  N       45.964     -57.168     203.163
  C       44.845     -56.883     202.451
  C       44.100     -57.724     201.653
  C       44.502     -59.110     201.581
  O       43.884     -60.004     201.009
  N       43.046     -57.064     201.077
  C       43.141     -55.836     201.543
  N       44.203     -55.676     202.398
  O       39.759     -53.778     199.973
  O       38.952     -52.134     201.785
  H       46.676     -52.014     202.838
  H       38.795     -53.867     199.836
  H       45.998     -60.309     202.258
  H       42.455     -55.035     201.315
  H       45.072     -54.868     204.081
  H       45.983     -53.869     201.607
  H       47.817     -59.779     203.627
  H       43.819     -52.944     201.027
  H       47.960     -58.164     204.246
  H       43.679     -51.819     203.873
  H       41.248     -52.246     203.589
  H       41.857     -51.048     202.422
  P       44.942     -50.780     200.109
  C       47.036     -49.351     200.678
  O       45.752     -49.398     200.089
  O       43.460     -50.369     199.665
  O       45.492     -51.857     199.233
  H       43.309     -50.631     198.736
  H       47.636     -48.602     200.154
  H       47.550     -50.321     200.609
  H       46.947     -49.066     201.725
  H       39.980     -49.641     198.879
  H       39.465     -49.786     200.542
  H       38.646     -50.691     199.292

 3  4  5  6  7  8  9  10  11  12  23  26  30  31 0
 6-311+G(2d,p)
 ****
 33  35  36  37  38 0
 6-311+G(2d,p)
 ****
 1  2  13  14  15  16  17  18  19  20  21  22  24  25 0
 3-21G
 ****
 27  28  29  32  34  39  40  41  42  43  44  45  46  47  48  49 0
 3-21G
 ****


