%nproc=1
%NoSave
%Mem=1900MB
#P OB98/GEN NMR

erre ene a

0 1
  C       47.422    -309.011     219.321
  O       46.935    -308.945     217.989
  P       45.925    -307.777     217.548
  C       46.180    -305.228     217.320
  O       46.586    -306.396     218.028
  C       46.002    -304.051     218.276
  O       44.843    -304.298     219.109
  C       47.194    -303.836     219.203
  O       47.368    -302.430     219.419
  C       46.767    -304.463     220.520
  O       47.457    -303.866     221.630
  C       45.255    -304.228     220.489
  N       43.661    -305.700     225.145
  C       44.359    -304.620     224.737
  N       44.767    -304.303     223.487
  C       44.338    -305.219     222.601
  C       43.616    -306.371     222.869
  C       43.272    -306.606     224.214
  N       42.552    -307.703     224.629
  N       43.383    -307.086     221.709
  C       43.938    -306.364     220.758
  N       44.520    -305.221     221.247
  O       44.511    -307.971     217.975
  O       46.059    -307.710     215.957
  H       47.154    -304.323     222.439
  H       45.191    -307.540     215.548
  H       44.625    -303.908     225.512
  H       43.957    -306.628     219.712
  H       44.992    -303.234     220.874
  H       47.009    -305.534     220.512
  H       48.120    -304.275     218.815
  H       45.799    -303.151     217.688
  H       45.226    -305.441     216.827
  H       42.249    -307.726     225.593
  H       42.115    -308.284     223.921
  H       46.925    -304.992     216.553
  P       48.842    -301.962     219.875
  C       51.095    -301.973     218.566
  O       49.819    -302.545     218.747
  O       49.133    -302.338     221.291
  O       48.768    -300.390     219.593
  H       48.101    -300.175     218.909
  H       51.591    -302.474     217.732
  H       51.703    -302.110     219.468
  H       51.009    -300.906     218.338
  H       48.077    -309.851     219.420
  H       46.599    -309.118     219.997
  H       47.957    -308.113     219.550

 3  4  5  6  7  8  9  10  11  12  22  25  29  30  31  32 0
 6-311+G(2d,p)
 ****
 33  36  37 0
 6-311+G(2d,p)
 ****
 1  2  13  14  15  16  17  18  19  20  21  23  24  26 0
 3-21G
 ****
 27  28  34  35  38  39  40  41  42  43  44  45  46  47  48 0
 3-21G
 ****


