%nproc=1
%NoSave
%Mem=1900MB
#P OB98/GEN NMR

erre ene a

0 1
  C     -291.865    1161.080    -170.406
  O     -291.555    1159.781    -169.937
  H     -291.621    1161.141    -171.469
  H     -291.273    1161.823    -169.862
  H     -292.933    1161.289    -170.274
  P     -291.998    1159.424    -168.442
  C     -294.381    1158.329    -168.568
  O     -292.971    1158.146    -168.525
  C     -295.027    1157.214    -169.389
  O     -294.658    1157.312    -170.783
  C     -294.576    1155.814    -168.993
  O     -295.092    1155.407    -167.751
  C     -295.094    1155.014    -170.178
  O     -296.503    1154.763    -170.053
  C     -294.812    1155.983    -171.351
  N     -293.646    1155.593    -172.129
  C     -293.709    1154.323    -172.722
  O     -294.709    1153.619    -172.581
  N     -292.620    1153.879    -173.436
  C     -291.579    1154.636    -173.566
  N     -290.536    1154.133    -174.280
  C     -291.484    1155.990    -172.981
  C     -292.541    1156.396    -172.279
  O     -293.006    1160.614    -168.082
  O     -290.880    1159.246    -167.470
  H     -296.789    1154.369    -170.901
  H     -293.720    1160.727    -168.729
  H     -290.601    1156.590    -173.126
  H     -292.552    1157.373    -171.816
  H     -295.678    1156.029    -172.029
  H     -294.606    1154.042    -170.261
  H     -293.479    1155.757    -169.005
  H     -296.116    1157.320    -169.315
  H     -290.630    1153.192    -174.646
  H     -294.637    1159.310    -168.980
  H     -289.661    1154.617    -174.416
  H     -294.751    1158.296    -167.538
  P     -294.111    1154.958    -166.567
  C     -294.337    1157.041    -165.074
  O     -294.657    1155.665    -165.232
  O     -292.656    1155.180    -166.831
  O     -294.500    1153.425    -166.321
  H     -295.430    1153.279    -166.064
  H     -294.751    1157.400    -164.155
  H     -294.745    1157.598    -165.891
  H     -293.274    1157.160    -165.057

 6  7  8  9  10  11  12  13  14  15  16  26  30  31  32  33  35 0
 6-311+G(2d,p)
 ****
 37  38 0
 6-311+G(2d,p)
 ****
 1  2  3  4  5  17  18  19  20  21  22  23  24  25 0
 3-21G
 ****
 27  28  29  34  36  39  40  41  42  43  44  45  46 0
 3-21G
 ****


