%nproc=1
%NoSave
%Mem=1900MB
#P OB98/GEN NMR

erre ene a

0 1
  C     -160.565      92.646    -120.314
  O     -160.380      93.371    -121.513
  H     -160.222      91.621    -120.470
  H     -161.623      92.623    -120.039
  H     -159.979      93.090    -119.505
  P     -160.867      94.895    -121.573
  C     -159.896      95.388    -123.913
  O     -161.073      95.254    -123.124
  C     -160.104      96.456    -124.994
  O     -160.995      95.903    -125.993
  C     -160.738      97.739    -124.438
  O     -160.000      98.916    -124.764
  C     -162.180      97.654    -124.922
  O     -162.829      98.900    -125.066
  C     -162.064      96.841    -126.217
  N     -163.292      96.143    -126.590
  C     -164.344      96.916    -127.072
  O     -164.313      98.135    -127.232
  N     -165.485      96.227    -127.394
  C     -165.674      94.884    -127.276
  O     -166.717      94.321    -127.587
  C     -164.535      94.124    -126.740
  C     -163.414      94.778    -126.424
  O     -160.035      95.872    -120.813
  O     -162.368      94.845    -121.016
  H     -162.389      99.382    -125.796
  H     -162.384      95.163    -120.094
  H     -166.250      96.776    -127.755
  H     -164.651      93.055    -126.622
  H     -162.553      94.248    -126.027
  H     -161.782      97.485    -127.050
  H     -162.755      97.076    -124.188
  H     -160.732      97.734    -123.342
  H     -159.142      96.656    -125.481
  H     -159.686      94.418    -124.374
  H     -159.053      95.669    -123.272
  P     -158.773      99.480    -123.916
  C     -157.455     100.244    -126.050
  O     -158.026     100.588    -124.797
  O     -157.917      98.453    -123.254
  O     -159.490     100.340    -122.753
  H     -158.918     100.269    -121.962
  H     -157.004     101.111    -126.486
  H     -158.220      99.874    -126.701
  H     -156.711      99.488    -125.908

 6  7  8  9  10  11  12  13  14  15  16  26  31  32  33  34  35 0
 6-311+G(2d,p)
 ****
 36  37 0
 6-311+G(2d,p)
 ****
 1  2  3  4  5  17  18  19  20  21  22  23  24  25 0
 3-21G
 ****
 27  28  29  30  38  39  40  41  42  43  44  45 0
 3-21G
 ****


