%nproc=1
%NoSave
%Mem=1900MB
#P OB98/GEN NMR

erre ene a

0 1
  C       81.620     130.748    -488.444
  O       80.780     131.332    -487.470
  H       81.687     129.667    -488.290
  H       81.202     130.941    -489.435
  H       82.619     131.192    -488.391
  P       81.173     131.064    -485.934
  C       80.607     133.571    -485.592
  O       80.500     132.250    -485.082
  C       79.838     134.543    -484.696
  O       80.196     134.323    -483.308
  C       80.126     136.013    -484.955
  O       79.415     136.504    -486.096
  C       79.607     136.634    -483.660
  O       78.176     136.765    -483.728
  C       79.993     135.587    -482.618
  N       82.065     136.215    -477.959
  C       80.813     135.886    -478.349
  N       80.332     135.741    -479.608
  C       81.297     135.967    -480.513
  C       82.618     136.316    -480.258
  C       82.994     136.446    -478.915
  N       84.270     136.794    -478.523
  N       83.319     136.452    -481.439
  C       82.445     136.201    -482.397
  N       81.193     135.903    -481.876
  O       82.738     131.413    -485.883
  O       80.903     129.686    -485.442
  H       77.824     135.878    -483.942
  H       83.177     130.808    -485.259
  H       80.099     135.695    -477.550
  H       82.657     136.205    -483.453
  H       79.180     135.422    -481.896
  H       80.021     137.632    -483.475
  H       81.202     136.198    -485.051
  H       78.764     134.330    -484.805
  H       80.171     133.607    -486.600
  H       84.531     136.680    -477.561
  H       84.960     136.966    -479.255
  H       81.658     133.847    -485.644
  P       80.126     137.631    -486.973
  C       78.732     136.748    -488.973
  O       79.154     137.892    -488.228
  O       81.386     136.868    -487.620
  O       80.556     138.857    -486.219
  H       82.084     137.508    -487.834
  H       78.094     137.059    -489.774
  H       78.197     136.081    -488.330
  H       79.589     136.247    -489.373

 6  7  8  9  10  11  12  13  14  15  25  28  32  33  34  35 0
 6-311+G(2d,p)
 ****
 36  39  40 0
 6-311+G(2d,p)
 ****
 1  2  3  4  5  16  17  18  19  20  21  22  23  24 0
 3-21G
 ****
 26  27  29  30  31  37  38  41  42  43  44  45  46  47  48 0
 3-21G
 ****


