%nproc=1
%NoSave
%Mem=1900MB
#P OB98/GEN NMR

erre ene a

0 1
  C       73.047     150.144    -109.881
  O       72.774     151.349    -109.193
  P       72.454     152.695    -109.996
  C       70.563     153.476    -111.537
  O       71.309     152.357    -111.071
  C       70.136     153.289    -112.994
  O       71.322     153.287    -113.838
  C       69.373     151.988    -113.279
  O       68.423     152.283    -114.308
  C       70.456     151.076    -113.830
  O       69.935     149.994    -114.592
  C       71.275     152.082    -114.632
  N       74.164     149.080    -117.595
  C       72.831     149.286    -117.552
  N       72.135     150.081    -116.715
  C       72.959     150.708    -115.859
  C       74.333     150.579    -115.764
  C       74.950     149.728    -116.700
  N       76.311     149.536    -116.783
  N       74.819     151.343    -114.718
  C       73.755     151.921    -114.198
  N       72.618     151.617    -114.896
  O       73.644     153.400    -110.555
  O       71.691     153.612    -108.929
  H       69.488     150.359    -115.380
  H       72.284     154.325    -108.621
  H       72.246     148.741    -118.288
  H       73.751     152.559    -113.325
  H       70.806     152.325    -115.592
  H       71.040     150.657    -113.002
  H       68.873     151.564    -112.401
  H       69.535     154.158    -113.287
  H       71.198     154.363    -111.459
  H       76.653     149.012    -117.572
  H       76.929     150.198    -116.314
  H       69.682     153.624    -110.904
  P       67.181     151.300    -114.556
  C       65.255     150.457    -113.098
  O       66.582     150.951    -113.113
  O       67.460     150.126    -115.436
  O       66.064     152.262    -115.190
  H       65.381     151.720    -115.630
  H       64.556     151.293    -113.178
  H       65.081     149.936    -112.152
  H       65.082     149.759    -113.924
  H       73.235     149.364    -109.173
  H       73.907     150.276    -110.503
  H       72.205     149.881    -110.487

 3  4  5  6  7  8  9  10  11  12  22  25  29  30  31  32 0
 6-311+G(2d,p)
 ****
 33  36  37 0
 6-311+G(2d,p)
 ****
 1  2  13  14  15  16  17  18  19  20  21  23  24  26 0
 3-21G
 ****
 27  28  34  35  38  39  40  41  42  43  44  45  46  47  48 0
 3-21G
 ****


