%nproc=1
%NoSave
%Mem=1900MB
#P OB98/GEN NMR

erre ene a

0 1
  C      468.935    -404.615      24.322
  O      469.560    -405.471      25.261
  H      469.703    -404.005      23.841
  H      468.218    -403.954      24.812
  H      468.431    -405.210      23.555
  P      468.626    -406.267      26.294
  C      468.864    -408.595      25.210
  O      468.001    -407.488      25.451
  C      468.442    -409.812      26.031
  O      468.590    -409.556      27.443
  C      466.984    -410.205      25.857
  O      466.646    -410.683      24.575
  C      466.753    -411.096      27.069
  O      467.198    -412.433      26.854
  C      467.645    -410.403      28.131
  N      466.862    -409.657      29.111
  C      466.288    -410.407      30.129
  O      466.391    -411.626      30.220
  N      465.552    -409.701      31.043
  C      465.300    -408.364      31.006
  O      464.610    -407.791      31.843
  C      465.903    -407.630      29.880
  C      466.646    -408.298      28.998
  O      467.602    -405.440      27.014
  O      469.665    -406.996      27.268
  H      466.903    -412.691      25.959
  H      469.220    -407.316      28.090
  H      465.136    -410.224      31.800
  H      465.714    -406.567      29.813
  H      467.104    -407.779      28.161
  H      468.239    -411.153      28.672
  H      465.698    -411.144      27.349
  H      466.368    -409.309      26.014
  H      469.110    -410.643      25.775
  H      469.877    -408.298      25.503
  H      468.859    -408.837      24.144
  P      465.176    -411.121      24.151
  C      464.813    -408.996      22.673
  O      464.349    -409.810      23.742
  O      464.502    -412.135      25.018
  O      465.446    -411.811      22.714
  H      464.803    -412.542      22.623
  H      464.146    -408.171      22.538
  H      464.851    -409.575      21.774
  H      465.792    -408.630      22.903

 6  7  8  9  10  11  12  13  14  15  16  26  31  32  33  34  35 0
 6-311+G(2d,p)
 ****
 36  37 0
 6-311+G(2d,p)
 ****
 1  2  3  4  5  17  18  19  20  21  22  23  24  25 0
 3-21G
 ****
 27  28  29  30  38  39  40  41  42  43  44  45 0
 3-21G
 ****


