%nproc=1
%NoSave
%Mem=1900MB
#P OB98/GEN NMR

erre ene a

0 1
  C      550.186     619.721    -501.503
  O      549.876     620.742    -500.560
  P      550.954     621.524    -499.683
  C      550.868     623.703    -501.139
  O      551.641     622.634    -500.607
  C      551.683     624.633    -502.055
  O      552.373     623.843    -503.067
  C      550.761     625.585    -502.821
  O      550.315     626.777    -502.201
  C      551.437     625.793    -504.169
  O      552.264     626.954    -504.191
  C      552.290     624.528    -504.325
  N      553.025     622.404    -508.929
  C      553.797     623.348    -508.264
  N      554.876     623.814    -508.919
  N      553.524     623.783    -507.062
  C      552.372     623.301    -506.551
  C      551.511     622.379    -507.115
  C      551.856     621.840    -508.420
  O      551.221     621.006    -509.042
  N      550.435     622.137    -506.318
  C      550.613     622.925    -505.270
  N      551.794     623.648    -505.366
  O      551.863     620.675    -498.854
  O      550.039     622.391    -498.664
  H      551.706     627.724    -503.997
  H      550.547     622.458    -497.830
  H      553.302     622.078    -509.830
  H      549.952     623.007    -504.424
  H      553.319     624.776    -504.604
  H      550.686     625.929    -504.961
  H      555.077     623.600    -509.885
  H      549.839     625.020    -503.047
  H      555.317     624.646    -508.531
  H      552.473     625.148    -501.504
  H      550.481     624.269    -500.279
  H      550.008     623.312    -501.675
  P      549.014     626.943    -501.284
  C      550.296     627.723    -499.207
  O      549.456     626.732    -499.758
  O      548.154     625.630    -501.583
  O      548.215     628.181    -501.543
  H      547.227     625.756    -501.288
  H      550.771     627.332    -498.305
  H      549.691     628.598    -498.937
  H      551.087     628.026    -499.918
  H      549.283     619.364    -501.952
  H      550.680     618.913    -501.005
  H      550.828     620.119    -502.261

 3  4  5  6  7  8  9  10  11  12  23  26  30  31 0
 6-311+G(2d,p)
 ****
 33  35  36  37  38 0
 6-311+G(2d,p)
 ****
 1  2  13  14  15  16  17  18  19  20  21  22  24  25 0
 3-21G
 ****
 27  28  29  32  34  39  40  41  42  43  44  45  46  47  48  49 0
 3-21G
 ****


