%nproc=1
%NoSave
%Mem=1900MB
#P OB98/GEN NMR

erre ene a

0 1
  C     -190.136    -497.016     320.641
  O     -189.906    -498.399     320.889
  P     -190.898    -499.176     321.877
  C     -190.717    -501.539     320.690
  O     -190.580    -500.742     321.850
  C     -190.668    -503.025     321.098
  O     -189.339    -503.384     321.538
  C     -191.633    -503.375     322.229
  O     -192.926    -503.681     321.745
  C     -190.932    -504.550     322.877
  O     -191.143    -505.749     322.104
  C     -189.453    -504.104     322.797
  N     -188.924    -503.258     323.883
  C     -188.240    -503.831     324.950
  O     -188.029    -505.038     325.068
  N     -187.763    -502.969     325.908
  C     -187.757    -501.606     325.831
  O     -187.267    -500.884     326.685
  C     -188.354    -501.043     324.609
  C     -188.916    -501.873     323.722
  O     -192.321    -499.064     321.162
  O     -190.929    -498.631     323.270
  H     -190.992    -505.518     321.172
  H     -192.934    -498.533     321.699
  H     -187.328    -503.374     326.722
  H     -188.334    -499.968     324.487
  H     -189.359    -501.464     322.816
  H     -188.788    -504.981     322.735
  H     -191.337    -504.756     323.866
  H     -191.665    -502.564     322.952
  H     -190.899    -503.629     320.203
  H     -189.917    -501.318     319.979
  H     -191.663    -501.309     320.200
  P     -194.108    -502.612     321.908
  C     -195.198    -502.871     319.594
  O     -195.304    -503.147     320.977
  O     -193.728    -501.179     321.708
  O     -194.668    -502.887     323.383
  H     -194.255    -502.265     324.030
  H     -195.977    -503.421     319.065
  H     -194.220    -503.193     319.221
  H     -195.334    -501.803     319.415
  H     -189.393    -496.646     319.966
  H     -190.082    -496.475     321.562
  H     -191.106    -496.888     320.209

 3  4  5  6  7  8  9  10  11  12  13  23  28  29  30  31  32 0
 6-311+G(2d,p)
 ****
 33  34 0
 6-311+G(2d,p)
 ****
 1  2  14  15  16  17  18  19  20  21  22  24  25  26  27 0
 3-21G
 ****
 35  36  37  38  39  40  41  42  43  44  45 0
 3-21G
 ****


