%nproc=1
%NoSave
%Mem=1900MB
#P OB98/GEN NMR

erre ene a

0 1
  C       33.091    -184.664     -72.842
  O       32.643    -185.812     -73.539
  H       33.732    -184.078     -73.505
  H       33.673    -184.966     -71.968
  H       32.242    -184.049     -72.533
  P       31.609    -186.769     -72.772
  C       31.528    -187.903     -70.438
  O       32.250    -187.056     -71.323
  C       32.397    -188.305     -69.246
  O       33.315    -189.361     -69.664
  C       33.248    -187.159     -68.667
  O       33.335    -187.346     -67.249
  C       34.620    -187.422     -69.266
  O       35.667    -186.810     -68.516
  C       34.634    -188.952     -69.251
  N       38.768    -191.830     -69.319
  C       37.912    -191.507     -68.282
  N       38.206    -192.034     -67.072
  N       36.865    -190.738     -68.414
  C       36.677    -190.309     -69.685
  C       37.448    -190.551     -70.800
  C       38.622    -191.384     -70.632
  O       39.424    -191.689     -71.510
  N       36.936    -189.912     -71.906
  C       35.857    -189.287     -71.458
  N       35.660    -189.500     -70.120
  O       31.781    -188.162     -73.545
  O       30.190    -186.304     -72.763
  H       36.523    -187.118     -68.887
  H       31.116    -188.239     -74.255
  H       39.565    -192.419     -69.161
  H       35.195    -188.673     -72.056
  H       34.821    -189.357     -68.247
  H       34.667    -187.040     -70.294
  H       38.965    -192.673     -66.903
  H       32.863    -186.155     -68.887
  H       37.568    -191.846     -66.304
  H       31.749    -188.741     -68.473
  H       31.223    -188.806     -70.980
  H       30.631    -187.379     -70.088
  P       32.301    -186.548     -66.317
  C       31.565    -184.070     -65.997
  O       32.450    -184.980     -66.632
  O       32.957    -186.678     -64.861
  O       30.907    -187.087     -66.347
  H       32.264    -186.634     -64.178
  H       31.794    -183.073     -66.310
  H       31.677    -184.145     -64.936
  H       30.557    -184.306     -66.267

 6  7  8  9  10  11  12  13  14  15  26  29  33  34 0
 6-311+G(2d,p)
 ****
 36  38  39  40  41 0
 6-311+G(2d,p)
 ****
 1  2  3  4  5  16  17  18  19  20  21  22  23  24  25 0
 3-21G
 ****
 27  28  30  31  32  35  37  42  43  44  45  46  47 0
 3-21G
 ****
 48  49 0
 3-21G
 ****


