%nproc=1
%NoSave
%Mem=1900MB
#P OB98/GEN NMR

erre ene a

0 1
  C       60.461      12.362    -150.337
  O       61.163      12.751    -149.173
  H       61.003      12.730    -151.212
  H       59.457      12.793    -150.343
  H       60.398      11.272    -150.399
  P       60.561      12.330    -147.750
  C       59.651      14.721    -147.404
  O       59.343      13.335    -147.473
  C       58.880      15.372    -146.261
  O       57.462      15.213    -146.457
  C       59.197      14.785    -144.886
  O       60.401      15.336    -144.377
  C       57.964      15.221    -144.111
  O       58.068      16.618    -143.777
  C       56.852      15.004    -145.153
  N       53.475      11.996    -142.867
  C       53.861      13.286    -142.562
  N       53.297      13.836    -141.466
  N       54.736      13.967    -143.257
  C       55.267      13.262    -144.282
  C       54.977      11.974    -144.672
  C       53.967      11.252    -143.929
  O       53.582      10.112    -144.175
  N       55.767      11.575    -145.720
  C       56.506      12.634    -145.987
  N       56.252      13.681    -145.133
  O       61.538      12.238    -146.616
  O       59.833      10.935    -148.032
  H       58.323      17.081    -144.597
  H       60.429      10.185    -147.858
  H       52.810      11.518    -142.281
  H       57.235      12.697    -146.786
  H       56.039      15.730    -145.049
  H       57.826      14.672    -143.180
  H       52.852      13.271    -140.754
  H       59.225      13.692    -144.908
  H       53.604      14.762    -141.198
  H       59.090      16.449    -146.285
  H       59.370      15.170    -148.362
  H       60.726      14.865    -147.251
  P       61.411      14.450    -143.499
  C       60.651      15.093    -141.114
  O       60.608      14.122    -142.151
  O       62.757      15.055    -143.291
  O       61.447      13.034    -144.234
  H       62.132      12.974    -144.943
  H       60.077      14.749    -140.279
  H       60.242      16.015    -141.472
  H       61.666      15.246    -140.811

 6  7  8  9  10  11  12  13  14  15  26  29  33  34 0
 6-311+G(2d,p)
 ****
 36  38  39  40  41 0
 6-311+G(2d,p)
 ****
 1  2  3  4  5  16  17  18  19  20  21  22  23  24  25 0
 3-21G
 ****
 27  28  30  31  32  35  37  42  43  44  45  46  47 0
 3-21G
 ****
 48  49 0
 3-21G
 ****


