%nproc=1
%NoSave
%Mem=1900MB
#P OB98/GEN NMR

erre ene a

0 1
  C     -220.915      89.000    -200.297
  O     -221.093      89.686    -199.073
  H     -219.844      88.897    -200.509
  H     -221.356      88.002    -200.210
  H     -221.403      89.535    -201.115
  P     -220.670      91.234    -199.044
  C     -218.303      90.820    -198.047
  O     -219.066      91.251    -199.168
  C     -216.814      90.784    -198.402
  O     -216.052      90.500    -197.199
  C     -216.454      89.721    -199.444
  O     -215.453      90.245    -200.318
  C     -215.867      88.595    -198.610
  O     -214.980      87.768    -199.360
  C     -215.195      89.370    -197.481
  N     -212.241      85.854    -195.236
  C     -212.097      86.559    -196.384
  N     -212.936      87.481    -196.905
  C     -213.979      87.692    -196.090
  C     -214.270      87.050    -194.891
  C     -213.338      86.085    -194.472
  N     -213.486      85.336    -193.326
  N     -215.457      87.512    -194.361
  C     -215.889      88.414    -195.230
  N     -215.032      88.552    -196.290
  O     -220.932      91.632    -197.506
  O     -221.401      92.126    -199.982
  H     -214.652      87.056    -198.768
  H     -221.887      91.797    -197.374
  H     -211.202      86.348    -196.960
  H     -216.804      88.982    -195.135
  H     -214.206      89.741    -197.757
  H     -216.678      87.957    -198.221
  H     -217.315      89.390    -200.030
  H     -216.510      91.785    -198.738
  H     -218.632      89.817    -197.753
  H     -212.808      84.617    -193.127
  H     -214.331      85.448    -192.769
  H     -218.468      91.512    -197.210
  P     -215.893      90.491    -201.845
  C     -215.264      88.255    -202.987
  O     -216.303      89.085    -202.498
  O     -214.510      90.862    -202.573
  O     -216.902      91.589    -202.008
  H     -214.618      91.678    -203.097
  H     -215.684      87.358    -203.391
  H     -214.598      88.008    -202.187
  H     -214.725      88.772    -203.753

 6  7  8  9  10  11  12  13  14  15  25  28  32  33  34  35 0
 6-311+G(2d,p)
 ****
 36  39  40 0
 6-311+G(2d,p)
 ****
 1  2  3  4  5  16  17  18  19  20  21  22  23  24 0
 3-21G
 ****
 26  27  29  30  31  37  38  41  42  43  44  45  46  47 0
 3-21G
 ****
 48 0
 3-21G
 ****


