%nproc=1
%NoSave
%Mem=1900MB
#P OB98/GEN NMR

erre ene a

0 1
  C     -126.838      79.589      37.987
  O     -127.159      78.204      37.907
  P     -125.943      77.160      37.904
  C     -126.980      75.696      35.991
  O     -126.491      75.773      37.316
  C     -128.076      74.622      35.869
  O     -127.584      73.394      36.467
  C     -129.378      74.933      36.597
  O     -130.411      74.099      36.066
  C     -129.054      74.495      38.009
  O     -130.234      74.304      38.785
  C     -128.192      73.234      37.774
  N     -127.146      73.033      38.800
  C     -127.424      72.193      39.875
  O     -128.493      71.605      40.028
  N     -126.437      72.070      40.815
  C     -125.210      72.657      40.768
  O     -124.396      72.584      41.680
  C     -124.917      73.419      39.547
  C     -125.883      73.578      38.641
  O     -125.701      76.862      39.455
  O     -124.715      77.672      37.231
  H     -130.596      75.200      38.969
  H     -124.895      77.315      39.764
  H     -126.651      71.518      41.632
  H     -123.927      73.845      39.442
  H     -125.689      74.156      37.741
  H     -128.813      72.329      37.762
  H     -128.460      75.267      38.507
  H     -129.685      75.981      36.554
  H     -128.265      74.419      34.809
  H     -126.159      75.480      35.303
  H     -127.391      76.668      35.693
  P     -131.686      74.812      35.404
  C     -133.394      74.253      37.240
  O     -132.971      74.000      35.914
  O     -131.613      75.048      33.933
  O     -131.794      76.186      36.223
  H     -132.333      76.825      35.722
  H     -134.474      74.095      37.301
  H     -133.168      75.279      37.544
  H     -132.894      73.556      37.916
  H     -127.740      80.165      37.980
  H     -126.232      79.864      37.149
  H     -126.301      79.779      38.893

 3  4  5  6  7  8  9  10  11  12  13  23  28  29  30  31  32 0
 6-311+G(2d,p)
 ****
 33  34 0
 6-311+G(2d,p)
 ****
 1  2  14  15  16  17  18  19  20  21  22  24  25  26  27 0
 3-21G
 ****
 35  36  37  38  39  40  41  42  43  44  45 0
 3-21G
 ****


