%nproc=1
%NoSave
%Mem=1900MB
#P OB98/GEN NMR

erre ene a

0 1
  C       85.958    -392.127     640.488
  O       85.966    -393.187     639.549
  H       86.898    -391.572     640.397
  H       85.883    -392.522     641.502
  H       85.126    -391.442     640.288
  P       84.633    -394.076     639.457
  C       86.114    -396.118     640.075
  O       85.113    -395.590     639.212
  C       86.114    -397.645     640.032
  O       84.915    -398.136     640.697
  C       86.133    -398.242     638.619
  O       86.908    -399.445     638.656
  C       84.676    -398.622     638.390
  O       84.519    -399.611     637.380
  C       84.294    -399.080     639.800
  N       80.424    -402.225     640.462
  C       81.774    -402.479     640.354
  N       82.163    -403.769     640.441
  N       82.683    -401.550     640.185
  C       82.151    -400.295     640.151
  C       80.837    -399.917     640.239
  C       79.849    -400.962     640.413
  O       78.633    -400.801     640.489
  N       80.709    -398.551     640.139
  C       81.949    -398.111     639.984
  N       82.858    -399.133     639.988
  O       84.022    -393.639     638.043
  O       83.658    -393.886     640.571
  H       84.962    -399.281     636.568
  H       83.375    -392.917     638.160
  H       79.767    -402.980     640.583
  H       82.236    -397.071     639.866
  H       84.686    -400.078     640.033
  H       84.092    -397.733     638.097
  H       81.529    -404.541     640.619
  H       86.524    -397.567     637.849
  H       83.161    -403.974     640.410
  H       86.968    -398.005     640.627
  H       85.907    -395.783     641.098
  H       87.088    -395.732     639.768
  P       88.467    -399.343     638.308
  C       88.239    -400.413     635.946
  O       88.824    -400.483     637.238
  O       89.170    -399.882     639.654
  O       88.937    -397.963     637.965
  H       90.050    -399.484     639.753
  H       88.576    -401.240     635.357
  H       88.527    -399.497     635.473
  H       87.173    -400.449     636.035

 6  7  8  9  10  11  12  13  14  15  26  29  33  34 0
 6-311+G(2d,p)
 ****
 36  38  39  40  41 0
 6-311+G(2d,p)
 ****
 1  2  3  4  5  16  17  18  19  20  21  22  23  24  25 0
 3-21G
 ****
 27  28  30  31  32  35  37  42  43  44  45  46  47 0
 3-21G
 ****
 48  49 0
 3-21G
 ****


