%nproc=1
%NoSave
%Mem=1900MB
#P OB98/GEN NMR

erre ene a

0 1
  C      429.124    -119.148    -315.592
  O      428.065    -118.888    -316.514
  P      427.120    -117.615    -316.295
  C      427.390    -116.930    -318.773
  O      427.444    -116.515    -317.414
  C      426.807    -115.812    -319.640
  O      425.370    -115.719    -319.491
  C      427.325    -114.431    -319.257
  O      428.680    -114.159    -319.542
  C      426.286    -113.512    -319.878
  O      426.547    -113.280    -321.261
  C      424.993    -114.342    -319.699
  N      424.153    -113.850    -318.606
  C      423.476    -112.657    -318.843
  O      423.591    -112.010    -319.883
  N      422.682    -112.210    -317.822
  C      422.530    -112.806    -316.605
  O      421.820    -112.347    -315.715
  C      423.289    -114.049    -316.404
  C      424.054    -114.507    -317.394
  O      427.044    -117.097    -314.897
  O      425.680    -118.161    -316.761
  H      427.358    -112.744    -321.319
  H      425.015    -117.813    -316.135
  H      422.176    -111.351    -317.979
  H      423.197    -114.545    -315.446
  H      424.620    -115.424    -317.269
  H      424.391    -114.315    -320.617
  H      426.269    -112.533    -319.387
  H      427.227    -114.328    -318.167
  H      427.014    -116.040    -320.690
  H      426.782    -117.833    -318.862
  H      428.399    -117.204    -319.102
  P      429.838    -114.201    -318.430
  C      430.607    -116.539    -319.245
  O      430.216    -115.734    -318.157
  O      429.681    -113.312    -317.243
  O      431.108    -113.700    -319.280
  H      431.696    -113.200    -318.683
  H      430.811    -117.551    -318.879
  H      431.513    -116.147    -319.709
  H      429.802    -116.592    -319.985
  H      429.648    -120.032    -315.891
  H      428.717    -119.289    -314.612
  H      429.800    -118.318    -315.582

 3  4  5  6  7  8  9  10  11  12  13  23  28  29  30  31  32 0
 6-311+G(2d,p)
 ****
 33  34 0
 6-311+G(2d,p)
 ****
 1  2  14  15  16  17  18  19  20  21  22  24  25  26  27 0
 3-21G
 ****
 35  36  37  38  39  40  41  42  43  44  45 0
 3-21G
 ****


