%nproc=1
%NoSave
%Mem=1900MB
#P OB98/GEN NMR

erre ene a

0 1
  C     -292.193    -120.145    -143.553
  O     -293.522    -119.913    -143.132
  H     -292.212    -120.760    -144.456
  H     -291.639    -120.677    -142.775
  H     -291.698    -119.196    -143.782
  P     -293.709    -119.043    -141.797
  C     -295.651    -117.667    -140.766
  O     -295.171    -118.386    -141.893
  C     -296.801    -116.750    -141.171
  O     -296.342    -115.726    -142.081
  C     -297.959    -117.460    -141.863
  O     -298.835    -118.053    -140.917
  C     -298.604    -116.309    -142.619
  O     -299.456    -115.523    -141.762
  C     -297.382    -115.495    -143.070
  N     -297.150    -113.996    -147.885
  C     -297.676    -113.363    -146.779
  N     -298.276    -112.173    -147.000
  N     -297.627    -113.852    -145.569
  C     -297.026    -115.063    -145.506
  C     -296.451    -115.786    -146.526
  C     -296.484    -115.216    -147.856
  O     -295.980    -115.698    -148.866
  N     -295.923    -116.964    -146.064
  C     -296.212    -116.971    -144.777
  N     -296.895    -115.846    -144.394
  O     -292.732    -117.794    -142.026
  O     -293.403    -119.753    -140.522
  H     -299.985    -116.117    -141.203
  H     -292.397    -117.488    -141.162
  H     -297.202    -113.562    -148.789
  H     -295.950    -117.761    -144.086
  H     -297.584    -114.419    -143.082
  H     -299.231    -116.666    -143.439
  H     -298.630    -111.919    -147.912
  H     -297.587    -118.204    -142.578
  H     -298.685    -111.711    -146.197
  H     -297.151    -116.242    -140.262
  H     -294.835    -117.061    -140.358
  H     -295.987    -118.376    -140.002
  P     -300.118    -118.838    -141.480
  C     -301.401    -120.964    -140.704
  O     -300.188    -120.224    -140.674
  O     -299.662    -119.288    -142.945
  O     -301.376    -118.039    -141.503
  H     -300.444    -119.532    -143.478
  H     -301.289    -121.856    -140.124
  H     -301.636    -121.223    -141.715
  H     -302.192    -120.370    -140.296

 6  7  8  9  10  11  12  13  14  15  26  29  33  34 0
 6-311+G(2d,p)
 ****
 36  38  39  40  41 0
 6-311+G(2d,p)
 ****
 1  2  3  4  5  16  17  18  19  20  21  22  23  24  25 0
 3-21G
 ****
 27  28  30  31  32  35  37  42  43  44  45  46  47 0
 3-21G
 ****
 48  49 0
 3-21G
 ****


