%nproc=1
%NoSave
%Mem=1900MB
#P OB98/GEN NMR

erre ene a

0 1
  C      190.695    -294.403    -168.033
  O      191.524    -293.483    -167.346
  H      189.782    -294.575    -167.456
  H      190.422    -293.971    -169.000
  H      191.217    -295.347    -168.203
  P      192.286    -294.020    -166.045
  C      194.649    -293.979    -167.118
  O      193.606    -294.772    -166.567
  C      195.976    -294.270    -166.418
  O      196.281    -295.685    -166.581
  C      197.172    -293.469    -166.956
  O      198.007    -293.094    -165.852
  C      197.908    -294.474    -167.821
  O      199.293    -294.171    -167.954
  C      197.637    -295.766    -167.065
  N      200.718    -299.694    -168.044
  C      200.616    -298.868    -166.983
  N      199.725    -297.878    -166.773
  C      198.836    -297.824    -167.779
  C      198.801    -298.603    -168.928
  C      199.814    -299.572    -169.046
  N      199.963    -300.369    -170.158
  N      197.762    -298.207    -169.750
  C      197.194    -297.188    -169.120
  N      197.813    -296.919    -167.924
  O      191.338    -295.220    -165.556
  O      192.508    -293.013    -164.959
  H      199.686    -294.785    -168.602
  H      190.645    -294.871    -164.969
  H      201.360    -299.014    -166.197
  H      196.371    -296.599    -169.495
  H      198.306    -295.905    -166.196
  H      197.460    -294.501    -168.817
  H      196.886    -292.570    -167.519
  H      195.846    -294.092    -165.339
  H      194.403    -292.916    -166.982
  H      200.785    -300.960    -170.206
  H      199.372    -300.211    -170.958
  H      194.733    -294.187    -168.191
  P      197.969    -291.563    -165.371
  C      195.901    -291.584    -163.784
  O      196.445    -291.181    -165.036
  O      198.269    -290.753    -166.714
  O      198.958    -291.246    -164.301
  H      198.756    -289.938    -166.511
  H      194.885    -291.256    -163.714
  H      196.471    -291.148    -162.990
  H      195.938    -292.651    -163.706

 6  7  8  9  10  11  12  13  14  15  25  28  32  33  34  35 0
 6-311+G(2d,p)
 ****
 36  39  40 0
 6-311+G(2d,p)
 ****
 1  2  3  4  5  16  17  18  19  20  21  22  23  24 0
 3-21G
 ****
 26  27  29  30  31  37  38  41  42  43  44  45  46  47 0
 3-21G
 ****
 48 0
 3-21G
 ****


