%nproc=1
%NoSave
%Mem=1900MB
#P OB98/GEN NMR

erre ene a

0 1
  C     -193.840    -118.822    -602.310
  O     -194.506    -119.949    -601.778
  H     -192.867    -119.123    -602.703
  H     -194.444    -118.409    -603.125
  H     -193.712    -118.052    -601.542
  P     -193.885    -120.601    -600.453
  C     -191.695    -121.932    -599.986
  O     -192.642    -121.491    -600.952
  C     -190.451    -122.496    -600.669
  O     -190.865    -123.580    -601.560
  C     -189.690    -121.468    -601.510
  O     -188.285    -121.700    -601.367
  C     -190.122    -121.774    -602.932
  O     -189.159    -121.352    -603.896
  C     -190.325    -123.285    -602.868
  N     -191.157    -123.448    -607.908
  C     -190.117    -122.996    -607.175
  N     -189.963    -122.993    -605.833
  C     -191.027    -123.578    -605.254
  C     -192.162    -124.085    -605.853
  C     -192.220    -123.991    -607.255
  N     -193.293    -124.420    -608.004
  N     -193.047    -124.571    -604.900
  C     -192.451    -124.356    -603.745
  N     -191.231    -123.761    -603.902
  O     -194.990    -121.691    -600.054
  O     -193.595    -119.653    -599.333
  H     -189.461    -121.636    -604.784
  H     -195.729    -121.249    -599.592
  H     -189.296    -122.578    -607.745
  H     -192.871    -124.607    -602.780
  H     -189.382    -123.848    -602.983
  H     -191.074    -121.267    -603.153
  H     -189.920    -120.437    -601.222
  H     -189.806    -122.946    -599.908
  H     -192.153    -122.705    -599.352
  H     -193.265    -124.265    -609.005
  H     -194.110    -124.770    -607.534
  H     -191.411    -121.076    -599.353
  P     -187.404    -120.488    -600.769
  C     -185.467    -119.040    -601.636
  O     -186.604    -119.790    -601.968
  O     -186.268    -121.245    -599.925
  O     -188.200    -119.565    -599.897
  H     -186.210    -120.873    -599.024
  H     -185.035    -118.634    -602.527
  H     -184.753    -119.671    -601.149
  H     -185.745    -118.243    -600.979

 6  7  8  9  10  11  12  13  14  15  25  28  32  33  34  35 0
 6-311+G(2d,p)
 ****
 36  39  40 0
 6-311+G(2d,p)
 ****
 1  2  3  4  5  16  17  18  19  20  21  22  23  24 0
 3-21G
 ****
 26  27  29  30  31  37  38  41  42  43  44  45  46  47 0
 3-21G
 ****
 48 0
 3-21G
 ****


