%nproc=1
%NoSave
%Mem=1900MB
#P OB98/GEN NMR

erre ene a

0 1
  C     -616.585    -174.481     -34.166
  O     -615.858    -175.446     -34.938
  P     -614.534    -176.074     -34.281
  C     -612.704    -175.177     -35.908
  O     -613.445    -176.309     -35.440
  C     -612.349    -175.311     -37.388
  O     -611.380    -176.386     -37.589
  C     -613.556    -175.642     -38.283
  O     -613.328    -175.078     -39.585
  C     -613.488    -177.150     -38.396
  O     -614.238    -177.630     -39.509
  C     -611.973    -177.357     -38.488
  N     -613.151    -182.237     -38.926
  C     -613.808    -181.123     -39.400
  N     -614.920    -181.333     -40.134
  N     -613.403    -179.886     -39.185
  C     -612.243    -179.837     -38.470
  C     -611.518    -180.865     -37.936
  C     -611.992    -182.224     -38.161
  O     -611.456    -183.245     -37.758
  N     -610.423    -180.413     -37.243
  C     -610.502    -179.091     -37.360
  N     -611.572    -178.692     -38.117
  O     -614.990    -177.560     -33.897
  O     -614.043    -175.329     -33.074
  H     -614.136    -178.613     -39.537
  H     -615.080    -177.639     -32.936
  H     -613.514    -183.166     -39.121
  H     -609.813    -178.383     -36.905
  H     -611.583    -177.167     -39.501
  H     -613.893    -177.616     -37.485
  H     -615.257    -182.254     -40.390
  H     -614.514    -175.283     -37.905
  H     -615.398    -180.535     -40.533
  H     -611.887    -174.376     -37.728
  H     -611.785    -175.072     -35.320
  H     -613.293    -174.268     -35.717
  P     -614.180    -173.769     -39.967
  C     -615.313    -174.886     -42.027
  O     -614.466    -173.859     -41.547
  O     -613.117    -172.572     -39.850
  O     -615.380    -173.540     -39.108
  H     -613.582    -171.727     -39.677
  H     -616.283    -174.445     -42.267
  H     -615.460    -175.686     -41.283
  H     -614.879    -175.306     -42.939
  H     -617.437    -174.149     -34.721
  H     -615.952    -173.646     -33.951
  H     -616.908    -174.928     -33.249

 3  4  5  6  7  8  9  10  11  12  23  26  30  31 0
 6-311+G(2d,p)
 ****
 33  35  36  37  38 0
 6-311+G(2d,p)
 ****
 1  2  13  14  15  16  17  18  19  20  21  22  24  25 0
 3-21G
 ****
 27  28  29  32  34  39  40  41  42  43  44  45  46  47  48  49 0
 3-21G
 ****


