%nproc=1
%NoSave
%Mem=1900MB
#P OB98/GEN NMR

erre ene a

0 1
  C      690.146     897.833      64.281
  O      689.808     897.582      65.630
  H      690.756     898.744      64.238
  H      689.238     897.994      63.696
  H      690.725     897.019      63.851
  P      689.179     896.165      66.012
  C      687.643     896.289      68.083
  O      688.971     896.179      67.608
  C      687.615     896.559      69.596
  O      688.562     895.665      70.251
  C      687.992     897.990      69.972
  O      687.280     898.337      71.171
  C      689.473     897.859      70.269
  O      689.968     898.948      71.017
  C      689.497     896.494      70.968
  N      690.843     895.903      71.003
  C      691.843     896.688      71.576
  O      691.665     897.827      72.003
  N      693.092     896.129      71.591
  C      693.452     894.923      71.053
  O      694.591     894.489      71.072
  C      692.349     894.159      70.429
  C      691.122     894.681      70.428
  O      689.895     894.967      65.483
  O      687.674     896.232      65.468
  H      690.904     898.797      71.264
  H      687.359     895.344      65.218
  H      693.835     896.669      72.008
  H      692.596     893.205      69.977
  H      690.290     894.144      69.975
  H      689.151     896.583      72.003
  H      690.050     897.816      69.337
  H      687.778     898.724      69.188
  H      686.620     896.301      69.984
  H      687.124     895.339      67.865
  H      687.129     897.096      67.551
  P      686.765     899.822      71.467
  C      686.904     900.050      74.033
  O      686.056     899.846      72.899
  O      685.950     900.426      70.363
  O      688.115     900.681      71.711
  H      687.958     901.597      71.463
  H      686.314     900.045      74.925
  H      687.403     900.992      73.940
  H      687.630     899.265      74.081

 6  7  8  9  10  11  12  13  14  15  16  26  31  32  33  34  35 0
 6-311+G(2d,p)
 ****
 36  37 0
 6-311+G(2d,p)
 ****
 1  2  3  4  5  17  18  19  20  21  22  23  24  25 0
 3-21G
 ****
 27  28  29  30  38  39  40  41  42  43  44  45 0
 3-21G
 ****


