%nproc=1
%NoSave
%Mem=1900MB
#P OB98/GEN NMR

erre ene a

0 1
  C      257.942      48.961     553.610
  O      257.980      49.675     554.828
  P      257.686      48.932     556.217
  C      258.208      51.112     557.474
  O      257.289      50.036     557.306
  C      257.749      52.038     558.602
  O      257.300      51.272     559.743
  C      258.843      52.949     559.140
  O      259.158      53.991     558.242
  C      258.221      53.393     560.461
  O      257.284      54.458     560.248
  C      257.492      52.112     560.910
  N      258.207      51.404     561.962
  C      258.251      52.042     563.206
  O      257.780      53.169     563.349
  N      258.842      51.382     564.258
  C      259.442      50.251     564.053
  N      259.958      49.615     565.142
  C      259.556      49.622     562.721
  C      258.900      50.238     561.733
  O      258.741      47.968     556.656
  O      256.301      48.174     555.963
  H      256.396      47.240     556.237
  H      257.816      55.269     560.118
  H      260.123      48.712     562.590
  H      258.909      49.839     560.724
  H      256.485      52.356     561.268
  H      258.972      53.761     561.170
  H      259.749      52.356     559.346
  H      256.903      52.632     558.231
  H      259.845      50.066     566.042
  H      258.267      51.675     556.540
  H      260.141      48.615     565.152
  H      259.203      50.702     557.693
  P      260.596      54.689     558.410
  C      260.242      55.693     556.045
  O      260.654      55.914     557.379
  O      261.597      53.608     557.777
  O      260.967      55.017     559.815
  H      262.434      53.603     558.284
  H      260.013      56.658     555.587
  H      259.353      55.058     556.005
  H      261.057      55.215     555.488
  H      258.163      49.625     552.800
  H      256.967      48.543     553.472
  H      258.667      48.175     553.635

 3  4  5  6  7  8  9  10  11  12  13  24  27  28  29  30  32 0
 6-311+G(2d,p)
 ****
 34  35 0
 6-311+G(2d,p)
 ****
 1  2  14  15  16  17  18  19  20  21  22  23  25  26 0
 3-21G
 ****
 31  33  36  37  38  39  40  41  42  43  44  45  46 0
 3-21G
 ****


