%nproc=1
%NoSave
%Mem=1900MB
#P OB98/GEN NMR

erre ene a

0 1
  C      221.293    -728.353     375.284
  O      220.945    -729.258     376.318
  H      220.784    -728.658     374.363
  H      222.367    -728.360     375.098
  H      220.969    -727.339     375.541
  P      221.688    -729.109     377.734
  C      224.174    -728.930     378.424
  O      223.242    -729.342     377.428
  C      225.538    -729.564     378.159
  O      225.973    -729.283     376.809
  C      226.629    -729.028     379.065
  O      226.534    -729.569     380.363
  C      227.875    -729.417     378.285
  O      228.203    -730.798     378.488
  C      227.415    -729.173     376.826
  N      227.840    -727.880     376.306
  C      228.356    -727.885     374.998
  O      228.420    -728.942     374.356
  N      228.796    -726.698     374.463
  C      228.722    -725.609     375.160
  N      229.195    -724.466     374.579
  C      228.182    -725.556     376.531
  C      227.768    -726.718     377.041
  O      221.149    -729.928     378.869
  O      221.614    -727.537     378.035
  H      229.052    -730.942     378.019
  H      220.801    -727.325     378.524
  H      228.140    -724.627     377.070
  H      227.352    -726.766     378.041
  H      227.799    -729.962     376.161
  H      228.739    -728.824     378.577
  H      226.588    -727.933     379.096
  H      225.441    -730.655     378.261
  H      229.562    -724.548     373.632
  H      223.786    -729.260     379.389
  H      229.101    -723.543     374.975
  H      224.262    -727.839     378.431
  P      226.825    -728.663     381.659
  C      228.933    -727.536     382.632
  O      228.417    -728.521     381.719
  O      226.175    -729.122     382.921
  O      226.345    -727.200     381.197
  H      225.365    -727.135     381.166
  H      230.002    -727.532     382.585
  H      228.620    -727.774     383.627
  H      228.561    -726.570     382.362

 6  7  8  9  10  11  12  13  14  15  16  26  30  31  32  33  35 0
 6-311+G(2d,p)
 ****
 37  38 0
 6-311+G(2d,p)
 ****
 1  2  3  4  5  17  18  19  20  21  22  23  24  25 0
 3-21G
 ****
 27  28  29  34  36  39  40  41  42  43  44  45  46 0
 3-21G
 ****


