%nproc=1
%NoSave
%Mem=1900MB
#P OB98/GEN NMR

erre ene a

0 1
  C     -625.968     -39.818     162.552
  O     -625.504     -38.755     163.354
  H     -626.204     -40.667     163.201
  H     -625.180     -40.121     161.855
  H     -626.866     -39.544     161.995
  P     -625.520     -37.274     162.752
  C     -624.069     -35.849     161.155
  O     -624.221     -37.101     161.818
  C     -622.602     -35.560     160.824
  O     -622.121     -36.520     159.854
  C     -622.401     -34.171     160.211
  O     -622.231     -33.134     161.159
  C     -621.138     -34.373     159.378
  O     -619.956     -34.131     160.157
  C     -621.216     -35.849     158.972
  N     -620.173     -35.144     154.013
  C     -619.533     -34.612     155.117
  N     -618.513     -33.762     154.863
  N     -619.878     -34.886     156.351
  C     -620.974     -35.667     156.446
  C     -621.707     -36.240     155.420
  C     -621.273     -35.992     154.056
  O     -621.791     -36.453     153.053
  N     -622.784     -36.944     155.901
  C     -622.754     -36.732     157.205
  N     -621.625     -36.030     157.585
  O     -625.158     -36.351     164.016
  O     -626.816     -36.842     162.131
  H     -620.061     -34.582     161.019
  H     -625.597     -35.484     163.926
  H     -619.849     -34.920     153.089
  H     -623.482     -37.094     157.917
  H     -620.245     -36.345     159.077
  H     -621.109     -33.677     158.539
  H     -618.260     -33.449     153.936
  H     -623.221     -33.927     159.529
  H     -618.142     -33.204     155.637
  H     -621.991     -35.689     161.735
  H     -624.456     -35.088     161.839
  H     -624.679     -35.821     160.249
  P     -622.572     -31.614     160.775
  C     -621.782     -29.905     158.949
  O     -621.666     -31.181     159.539
  O     -621.958     -30.781     162.002
  O     -624.026     -31.318     160.573
  H     -622.651     -30.554     162.645
  H     -621.087     -29.822     158.140
  H     -621.570     -29.153     159.680
  H     -622.777     -29.772     158.579

 6  7  8  9  10  11  12  13  14  15  26  29  33  34 0
 6-311+G(2d,p)
 ****
 36  38  39  40  41 0
 6-311+G(2d,p)
 ****
 1  2  3  4  5  16  17  18  19  20  21  22  23  24  25 0
 3-21G
 ****
 27  28  30  31  32  35  37  42  43  44  45  46  47 0
 3-21G
 ****
 48  49 0
 3-21G
 ****


