%nproc=1
%NoSave
%Mem=1900MB
#P OB98/GEN NMR

erre ene a

0 1
  C      404.594     427.355    -495.239
  O      405.119     426.197    -494.617
  P      405.832     426.377    -493.190
  C      403.561     426.362    -491.917
  O      404.747     427.090    -492.250
  C      403.520     426.075    -490.417
  O      404.529     425.100    -490.078
  C      403.795     427.281    -489.544
  O      402.664     428.112    -489.465
  C      404.172     426.613    -488.225
  O      402.998     426.337    -487.438
  C      404.849     425.301    -488.687
  N      406.288     425.314    -488.467
  C      406.697     425.424    -487.128
  O      405.857     425.523    -486.228
  N      408.049     425.458    -486.859
  C      408.899     425.388    -487.828
  N      410.220     425.425    -487.497
  C      408.511     425.296    -489.245
  C      407.201     425.261    -489.495
  O      406.902     427.532    -493.471
  O      406.460     425.136    -492.647
  H      403.305     425.743    -486.711
  H      407.652     427.468    -492.853
  H      409.263     425.244    -490.026
  H      406.824     425.198    -490.509
  H      404.430     424.445    -488.140
  H      404.816     427.255    -487.610
  H      404.664     427.840    -489.928
  H      402.537     425.638    -490.179
  H      410.457     425.502    -486.520
  H      403.553     425.408    -492.464
  H      410.963     425.363    -488.178
  H      402.690     426.952    -492.226
  P      402.827     429.545    -488.763
  C      402.977     430.773    -490.999
  O      403.650     430.431    -489.814
  O      403.942     429.232    -487.644
  O      401.607     430.169    -488.177
  H      404.055     430.013    -487.069
  H      403.582     431.499    -491.550
  H      402.009     431.229    -490.773
  H      402.836     429.889    -491.630
  H      404.152     427.087    -496.176
  H      405.382     428.059    -495.405
  H      403.851     427.794    -494.606

 3  4  5  6  7  8  9  10  11  12  13  21  23  27  28  29  30  32 0
 6-311+G(2d,p)
 ****
 34  35 0
 6-311+G(2d,p)
 ****
 1  2  14  15  16  17  18  19  20  22  24  25  26 0
 3-21G
 ****
 31  33  36  37  38  39  40  41  42  43  44  45  46 0
 3-21G
 ****


