%nproc=1
%NoSave
%Mem=1900MB
#P OB98/GEN NMR

erre ene a

0 1
  C     -854.200     116.587    1027.352
  O     -855.369     115.875    1027.695
  H     -854.482     117.566    1026.967
  H     -853.642     116.052    1026.579
  H     -853.571     116.720    1028.245
  P     -855.184     114.365    1028.192
  C     -854.480     114.902    1030.637
  O     -855.471     114.344    1029.772
  C     -854.842     114.564    1032.086
  O     -856.113     115.173    1032.429
  C     -855.007     113.084    1032.370
  O     -853.774     112.400    1032.515
  C     -855.810     113.112    1033.654
  O     -854.958     113.255    1034.800
  C     -856.706     114.355    1033.458
  N     -858.083     113.983    1033.147
  C     -858.852     113.562    1034.227
  O     -858.437     113.505    1035.379
  N     -860.140     113.184    1033.919
  C     -860.683     113.127    1032.669
  O     -861.825     112.706    1032.469
  C     -859.817     113.556    1031.569
  C     -858.573     113.961    1031.851
  O     -853.603     114.135    1028.089
  O     -855.945     113.341    1027.409
  H     -853.404     113.562    1027.322
  H     -854.511     114.115    1034.691
  H     -860.717     112.879    1034.695
  H     -860.213     113.519    1030.569
  H     -857.897     114.275    1031.057
  H     -856.721     114.956    1034.380
  H     -856.375     112.193    1033.781
  H     -855.619     112.620    1031.578
  H     -854.072     114.996    1032.740
  H     -854.461     115.988    1030.521
  H     -853.501     114.492    1030.367
  P     -853.432     111.234    1031.468
  C     -851.432     112.499    1030.312
  O     -851.873     111.397    1031.100
  O     -854.216     111.748    1030.169
  O     -853.828     109.880    1031.958
  H     -854.311     112.716    1030.166
  H     -850.373     112.437    1030.174
  H     -851.674     113.414    1030.811
  H     -851.918     112.473    1029.359

 6  7  8  9  10  11  12  13  14  15  16  27  31  32  33  34  35 0
 6-311+G(2d,p)
 ****
 36  37 0
 6-311+G(2d,p)
 ****
 1  2  3  4  5  17  18  19  20  21  22  23  24  25 0
 3-21G
 ****
 26  28  29  30  38  39  40  41  42  43  44  45 0
 3-21G
 ****


