%nproc=1
%NoSave
%Mem=1900MB
#P OB98/GEN NMR

erre ene a

0 1
  C      133.531     419.470     210.795
  O      132.343     418.745     211.072
  P      131.861     417.672     209.971
  C      129.666     419.012     209.572
  O      130.259     417.761     209.907
  C      128.165     418.857     209.298
  O      127.576     420.177     209.139
  C      127.841     418.056     208.020
  O      126.634     417.330     208.291
  C      127.602     419.167     207.002
  O      126.909     418.744     205.839
  C      126.878     420.179     207.873
  N      125.258     423.034     203.941
  C      125.036     421.735     204.265
  N      125.492     421.040     205.346
  C      126.246     421.835     206.128
  C      126.578     423.175     205.917
  C      126.040     423.780     204.767
  N      126.279     425.100     204.430
  N      127.388     423.637     206.930
  C      127.553     422.607     207.730
  N      126.871     421.511     207.308
  O      132.120     416.266     210.704
  O      132.564     417.751     208.653
  H      126.630     419.517     205.322
  H      132.449     415.598     210.084
  H      124.401     421.184     203.576
  H      128.167     422.600     208.624
  H      125.832     419.884     208.078
  H      128.572     419.563     206.666
  H      128.626     417.350     207.725
  H      127.699     418.389     210.162
  H      130.145     419.403     208.671
  H      126.024     425.374     203.495
  H      127.023     425.573     204.934
  H      129.845     419.731     210.380
  P      126.655     415.734     208.205
  C      126.720     415.602     205.631
  O      125.933     415.396     206.799
  O      125.506     415.352     209.255
  O      127.985     415.072     208.469
  H      124.686     415.844     209.079
  H      126.147     415.254     204.779
  H      127.652     415.045     205.699
  H      126.919     416.673     205.508
  H      133.735     420.143     211.602
  H      133.406     420.026     209.890
  H      134.348     418.788     210.685

 3  4  5  6  7  8  9  10  11  12  22  25  29  30  31  32 0
 6-311+G(2d,p)
 ****
 33  36  37 0
 6-311+G(2d,p)
 ****
 1  2  13  14  15  16  17  18  19  20  21  23  24  26 0
 3-21G
 ****
 27  28  34  35  38  39  40  41  42  43  44  45  46  47  48 0
 3-21G
 ****


