%nproc=1
%NoSave
%Mem=1900MB
#P OB98/GEN NMR

erre ene a

0 1
  C       42.889     309.935      63.400
  O       41.852     309.870      64.356
  H       43.305     310.947      63.403
  H       42.506     309.721      62.397
  H       43.688     309.231      63.654
  P       41.000     308.513      64.464
  C       38.861     309.974      64.376
  O       39.593     308.981      65.083
  C       37.966     310.757      65.337
  O       37.125     309.867      66.103
  C       38.713     311.576      66.384
  O       39.315     312.750      65.857
  C       37.577     311.883      67.341
  O       36.745     312.921      66.785
  C       36.829     310.528      67.366
  N       37.223     309.681      68.490
  C       36.335     309.625      69.574
  O       35.287     310.270      69.560
  N       36.680     308.872      70.671
  C       37.813     308.243      70.694
  N       38.124     307.547      71.824
  C       38.763     308.257      69.567
  C       38.413     308.990      68.511
  O       41.662     307.370      65.167
  O       40.592     308.180      62.952
  H       36.147     313.215      67.495
  H       40.070     307.339      62.963
  H       39.700     307.719      69.638
  H       39.071     309.068      67.651
  H       35.744     310.683      67.402
  H       37.914     312.234      68.320
  H       39.456     310.961      66.905
  H       37.303     311.388      64.729
  H       37.465     307.593      72.589
  H       38.264     309.472      63.607
  H       39.082     307.269      72.027
  H       39.546     310.677      63.894
  P       40.918     312.776      65.721
  C       41.500     314.145      67.863
  O       41.414     314.120      66.448
  O       41.137     313.083      64.165
  O       41.630     311.537      66.167
  H       41.250     312.257      63.654
  H       41.844     315.107      68.182
  H       42.187     313.393      68.192
  H       40.534     313.954      68.282

 6  7  8  9  10  11  12  13  14  15  16  26  30  31  32  33  35 0
 6-311+G(2d,p)
 ****
 37  38 0
 6-311+G(2d,p)
 ****
 1  2  3  4  5  17  18  19  20  21  22  23  24  25 0
 3-21G
 ****
 27  28  29  34  36  39  40  41  42  43  44  45  46 0
 3-21G
 ****


