%nproc=1
%NoSave
%Mem=1900MB
#P OB98/GEN NMR

erre ene a

0 1
  C       38.932    -280.322     -46.206
  O       39.088    -280.095     -47.595
  P       38.219    -281.004     -48.593
  C       38.037    -283.587     -48.853
  O       38.861    -282.470     -48.521
  C       38.896    -284.787     -49.239
  O       39.689    -284.473     -50.400
  C       39.888    -285.205     -48.166
  O       39.238    -285.932     -47.140
  C       40.877    -286.035     -48.978
  O       40.441    -287.397     -49.089
  C       40.851    -285.332     -50.357
  N       42.071    -284.590     -50.632
  C       43.046    -285.271     -51.372
  O       42.845    -286.433     -51.734
  N       44.227    -284.632     -51.650
  C       44.422    -283.426     -51.219
  N       45.612    -282.838     -51.527
  C       43.430    -282.681     -50.419
  C       42.291    -283.319     -50.159
  O       38.653    -280.474     -50.037
  O       36.743    -280.930     -48.379
  H       40.651    -287.813     -48.227
  H       37.943    -280.625     -50.690
  H       43.641    -281.675     -50.084
  H       41.510    -282.847     -49.574
  H       40.717    -286.071     -51.158
  H       41.870    -286.055     -48.518
  H       40.398    -284.328     -47.747
  H       38.229    -285.620     -49.492
  H       46.275    -283.377     -52.072
  H       37.397    -283.323     -49.699
  H       45.850    -281.894     -51.259
  H       37.401    -283.823     -47.994
  P       39.911    -285.932     -45.687
  C       42.175    -286.714     -44.766
  O       41.300    -286.710     -45.879
  O       39.026    -287.018     -44.907
  O       39.973    -284.630     -44.965
  H       39.279    -287.038     -43.966
  H       43.000    -287.399     -44.973
  H       41.651    -287.052     -43.868
  H       42.581    -285.711     -44.606
  H       39.565    -279.652     -45.662
  H       39.201    -281.332     -45.977
  H       37.912    -280.153     -45.929

 3  4  5  6  7  8  9  10  11  12  13  21  23  27  28  29  30  32 0
 6-311+G(2d,p)
 ****
 34  35 0
 6-311+G(2d,p)
 ****
 1  2  14  15  16  17  18  19  20  22  24  25  26 0
 3-21G
 ****
 31  33  36  37  38  39  40  41  42  43  44  45  46 0
 3-21G
 ****


