%nproc=1
%NoSave
%Mem=1900MB
#P OB98/GEN NMR

erre ene a

0 1
  C      132.463    -305.305     -36.917
  O      132.128    -306.282     -35.925
  P      133.356    -306.866     -35.066
  C      134.273    -308.705     -36.648
  O      134.464    -307.409     -36.095
  C      135.603    -309.324     -37.100
  O      136.209    -308.537     -38.167
  C      136.647    -309.432     -35.979
  O      137.405    -310.627     -36.222
  C      137.535    -308.229     -36.234
  O      138.801    -308.362     -35.590
  C      137.565    -308.237     -37.762
  N      141.625    -305.672     -39.328
  C      141.540    -306.891     -38.686
  N      142.702    -307.545     -38.472
  N      140.411    -307.424     -38.285
  C      139.325    -306.668     -38.604
  C      139.281    -305.454     -39.252
  C      140.539    -304.866     -39.655
  O      140.672    -303.791     -40.235
  N      137.981    -305.016     -39.415
  C      137.260    -305.946     -38.805
  N      138.017    -306.990     -38.345
  O      132.746    -308.198     -34.419
  O      133.863    -305.922     -34.023
  H      139.238    -307.483     -35.610
  H      132.492    -308.034     -33.490
  H      142.524    -305.303     -39.597
  H      136.187    -305.918     -38.692
  H      138.225    -309.022     -38.159
  H      137.056    -307.314     -35.857
  H      143.600    -307.223     -38.800
  H      136.229    -309.444     -34.968
  H      142.663    -308.469     -38.040
  H      135.397    -310.327     -37.506
  H      133.597    -308.651     -37.506
  H      133.776    -309.341     -35.907
  P      136.863    -312.000     -35.594
  C      138.210    -311.755     -33.394
  O      136.938    -311.852     -34.001
  O      138.035    -313.039     -35.928
  O      135.554    -312.470     -36.152
  H      137.647    -313.907     -36.166
  H      138.110    -311.214     -32.450
  H      138.925    -311.221     -34.031
  H      138.594    -312.758     -33.186
  H      131.574    -304.990     -37.422
  H      133.142    -305.733     -37.624
  H      132.923    -304.462     -36.446

 3  4  5  6  7  8  9  10  11  12  23  26  30  31 0
 6-311+G(2d,p)
 ****
 33  35  36  37  38 0
 6-311+G(2d,p)
 ****
 1  2  13  14  15  16  17  18  19  20  21  22  24  25 0
 3-21G
 ****
 27  28  29  32  34  39  40  41  42  43  44  45  46  47  48  49 0
 3-21G
 ****


