%nproc=1
%NoSave
%Mem=1900MB
#P OB98/GEN NMR

erre ene a

0 1
  C       61.849     -78.269     -68.456
  O       61.798     -76.924     -68.929
  P       60.366     -76.288     -69.267
  C       60.804     -76.735     -71.771
  O       59.881     -76.847     -70.692
  C       60.130     -77.118     -73.099
  O       59.913     -78.554     -73.119
  C       58.751     -76.488     -73.331
  O       58.689     -75.218     -73.972
  C       58.122     -77.494     -74.292
  O       58.549     -77.214     -75.638
  C       58.696     -78.833     -73.840
  N       54.361     -81.550     -73.768
  C       55.020     -80.928     -74.769
  N       56.169     -80.223     -74.703
  C       56.647     -80.208     -73.451
  C       56.087     -80.799     -72.330
  C       54.883     -81.497     -72.521
  N       54.205     -82.120     -71.500
  N       56.861     -80.559     -71.214
  C       57.861     -79.819     -71.652
  N       57.785     -79.591     -72.998
  O       60.247     -74.813     -69.081
  O       59.396     -77.067     -68.252
  H       58.182     -76.342     -75.871
  H       58.713     -76.447     -67.930
  H       54.563     -81.002     -75.752
  H       58.657     -79.430     -71.034
  H       58.959     -79.480     -74.685
  H       57.030     -77.440     -74.294
  H       58.176     -76.457     -72.397
  H       60.801     -76.863     -73.929
  H       61.659     -77.390     -71.590
  H       53.326     -82.562     -71.713
  H       54.550     -82.042     -70.553
  H       61.183     -75.713     -71.773
  P       58.364     -73.882     -73.150
  C       55.797     -73.726     -72.669
  O       57.061     -74.218     -72.280
  O       58.259     -72.644     -73.971
  O       59.529     -73.857     -72.056
  H       59.471     -74.560     -71.389
  H       55.027     -74.235     -72.083
  H       55.616     -73.916     -73.729
  H       55.741     -72.653     -72.468
  H       62.867     -78.546     -68.277
  H       61.426     -78.922     -69.191
  H       61.292     -78.348     -67.546

 3  4  5  6  7  8  9  10  11  12  22  25  29  30  31  32 0
 6-311+G(2d,p)
 ****
 33  36  37 0
 6-311+G(2d,p)
 ****
 1  2  13  14  15  16  17  18  19  20  21  23  24  26 0
 3-21G
 ****
 27  28  34  35  38  39  40  41  42  43  44  45  46  47  48 0
 3-21G
 ****


