%nproc=1
%NoSave
%Mem=1900MB
#P OB98/GEN NMR

erre ene a

0 1
  C     -216.430     -71.092      29.687
  O     -216.532     -72.309      30.401
  H     -216.116     -70.305      30.379
  H     -217.396     -70.814      29.256
  H     -215.680     -71.181      28.896
  P     -217.131     -73.595      29.657
  C     -214.727     -74.122      28.892
  O     -215.914     -74.631      29.486
  C     -213.544     -75.059      29.153
  O     -213.082     -74.849      30.514
  C     -213.891     -76.544      28.990
  O     -212.763     -77.208      28.408
  C     -214.094     -76.996      30.422
  O     -213.900     -78.392      30.561
  C     -213.096     -76.123      31.186
  N     -213.475     -75.995      32.596
  C     -212.458     -76.199      33.537
  O     -211.309     -76.454      33.166
  N     -212.774     -76.172      34.872
  C     -214.007     -76.016      35.239
  N     -214.256     -76.040      36.577
  C     -215.118     -75.826      34.282
  C     -214.782     -75.823      32.989
  O     -217.905     -73.332      28.407
  O     -218.042     -74.290      30.778
  H     -214.673     -78.865      30.184
  H     -218.956     -73.949      30.723
  H     -216.130     -75.704      34.639
  H     -215.533     -75.700      32.214
  H     -212.084     -76.547      31.132
  H     -215.121     -76.766      30.738
  H     -214.779     -76.712      28.376
  H     -212.716     -74.772      28.489
  H     -213.468     -76.199      37.193
  H     -214.522     -73.142      29.334
  H     -215.181     -75.970      36.979
  H     -214.874     -73.997      27.814
  P     -212.945     -78.161      27.128
  C     -212.846     -76.272      25.400
  O     -212.231     -77.474      25.861
  O     -214.346     -78.615      26.883
  O     -211.994     -79.415      27.446
  H     -212.363     -80.216      27.025
  H     -212.303     -75.893      24.560
  H     -212.842     -75.545      26.185
  H     -213.855     -76.477      25.109

 6  7  8  9  10  11  12  13  14  15  16  26  30  31  32  33  35 0
 6-311+G(2d,p)
 ****
 37  38 0
 6-311+G(2d,p)
 ****
 1  2  3  4  5  17  18  19  20  21  22  23  24  25 0
 3-21G
 ****
 27  28  29  34  36  39  40  41  42  43  44  45  46 0
 3-21G
 ****


