%nproc=1
%NoSave
%Mem=1900MB
#P OB98/GEN NMR

erre ene a

0 1
  C     -413.290    -573.725     393.810
  O     -413.845    -573.257     392.599
  H     -412.204    -573.791     393.689
  H     -413.680    -574.724     394.027
  H     -413.513    -573.051     394.642
  P     -415.326    -572.649     392.615
  C     -416.518    -574.504     391.275
  O     -416.078    -573.150     391.289
  C     -416.899    -574.967     389.863
  O     -417.904    -574.087     389.313
  C     -415.714    -574.919     388.889
  O     -414.873    -576.056     388.916
  C     -416.424    -574.781     387.551
  O     -416.800    -576.074     387.040
  C     -417.669    -573.963     387.898
  N     -418.722    -570.276     384.511
  C     -419.001    -571.630     384.440
  N     -419.579    -572.066     383.297
  N     -418.715    -572.479     385.394
  C     -418.053    -571.912     386.439
  C     -417.709    -570.592     386.616
  C     -418.079    -569.656     385.576
  O     -417.853    -568.446     385.580
  N     -417.049    -570.407     387.801
  C     -416.921    -571.612     388.304
  N     -417.538    -572.561     387.521
  O     -415.100    -571.087     392.317
  O     -416.084    -572.846     393.896
  H     -417.134    -575.961     386.132
  H     -415.829    -570.566     392.697
  H     -418.991    -569.667     383.757
  H     -416.417    -571.851     389.241
  H     -418.560    -574.347     387.389
  H     -415.776    -574.319     386.797
  H     -419.710    -571.474     382.493
  H     -415.126    -574.010     389.060
  H     -419.550    -573.062     383.106
  H     -417.343    -575.962     389.916
  H     -417.380    -574.562     391.933
  H     -415.745    -575.160     391.688
  P     -413.282    -575.861     388.954
  C     -413.170    -577.089     386.656
  O     -412.656    -576.971     387.963
  O     -412.901    -576.404     390.410
  O     -412.804    -574.477     388.728
  H     -412.818    -575.662     391.034
  H     -412.648    -577.865     386.136
  H     -413.040    -576.163     386.137
  H     -414.212    -577.329     386.703

 6  7  8  9  10  11  12  13  14  15  26  29  33  34 0
 6-311+G(2d,p)
 ****
 36  38  39  40  41 0
 6-311+G(2d,p)
 ****
 1  2  3  4  5  16  17  18  19  20  21  22  23  24  25 0
 3-21G
 ****
 27  28  30  31  32  35  37  42  43  44  45  46  47 0
 3-21G
 ****
 48  49 0
 3-21G
 ****


