%nproc=1
%NoSave
%Mem=1900MB
#P OB98/GEN NMR

erre ene a

0 1
  C     -129.146     136.734     -70.918
  O     -127.797     136.784     -71.338
  P     -127.069     135.493     -71.939
  C     -126.129     134.717     -69.684
  O     -126.976     134.392     -70.779
  C     -125.398     133.483     -69.159
  O     -126.312     132.681     -68.368
  C     -124.816     132.584     -70.259
  O     -123.557     132.093     -69.781
  C     -125.827     131.457     -70.350
  O     -125.276     130.278     -70.920
  C     -126.254     131.338     -68.885
  N     -127.529     130.652     -68.729
  C     -127.483     129.298     -68.394
  O     -126.403     128.704     -68.370
  N     -128.660     128.652     -68.111
  C     -129.788     129.255     -68.332
  N     -130.927     128.604     -67.974
  C     -129.874     130.604     -68.926
  C     -128.722     131.255     -69.057
  O     -125.780     135.761     -72.642
  O     -128.146     134.863     -72.945
  H     -127.732     134.742     -73.820
  H     -125.077     130.447     -71.865
  H     -130.832     131.014     -69.208
  H     -128.682     132.261     -69.458
  H     -125.493     130.800     -68.303
  H     -126.673     131.772     -70.972
  H     -124.663     133.113     -71.203
  H     -124.598     133.820     -68.488
  H     -130.828     127.699     -67.532
  H     -126.749     135.130     -68.885
  H     -131.805     129.100     -67.810
  H     -125.414     135.490     -69.985
  P     -122.614     131.291     -70.808
  C     -122.652     129.068     -69.470
  O     -122.960     129.733     -70.678
  O     -121.190     131.380     -70.072
  O     -122.506     131.851     -72.188
  H     -120.483     131.297     -70.736
  H     -122.892     128.008     -69.585
  H     -123.253     129.473     -68.651
  H     -121.589     129.164     -69.236
  H     -129.441     137.695     -70.550
  H     -129.251     136.007     -70.140
  H     -129.767     136.463     -71.746

 3  4  5  6  7  8  9  10  11  12  13  24  27  28  29  30  32 0
 6-311+G(2d,p)
 ****
 34  35 0
 6-311+G(2d,p)
 ****
 1  2  14  15  16  17  18  19  20  21  22  23  25  26 0
 3-21G
 ****
 31  33  36  37  38  39  40  41  42  43  44  45  46 0
 3-21G
 ****


