%nproc=1
%NoSave
%Mem=1900MB
#P OB98/GEN NMR

erre ene a

0 1
  C      834.343      66.390    -641.129
  O      834.059      67.773    -641.100
  H      833.472      65.860    -641.527
  H      834.544      66.026    -640.118
  H      835.202      66.189    -641.772
  P      835.255      68.765    -640.701
  C      834.909      69.726    -643.091
  O      835.836      69.359    -642.075
  C      835.477      70.855    -643.945
  O      835.427      72.089    -643.187
  C      836.924      70.629    -644.386
  O      837.085      71.115    -645.723
  C      837.727      71.504    -643.433
  O      838.988      71.896    -643.977
  C      836.751      72.661    -643.178
  N      837.041      73.334    -641.915
  C      837.823      74.490    -641.990
  O      838.240      74.887    -643.078
  N      838.169      75.136    -640.828
  C      837.835      74.620    -639.684
  N      838.236      75.288    -638.568
  C      837.069      73.367    -639.554
  C      836.706      72.783    -640.699
  O      836.414      67.775    -640.219
  O      834.917      69.794    -639.675
  H      839.519      72.306    -643.251
  H      836.960      68.184    -639.520
  H      836.839      72.963    -638.582
  H      836.143      71.852    -640.706
  H      836.802      73.394    -643.992
  H      837.919      70.955    -642.505
  H      837.230      69.580    -644.337
  H      834.826      70.991    -644.819
  H      838.769      76.138    -638.697
  H      833.984      70.068    -642.618
  H      838.065      74.955    -637.632
  H      834.685      68.843    -643.711
  P      838.431      70.699    -646.479
  C      837.408      70.535    -648.870
  O      838.031      69.850    -647.788
  O      839.084      69.605    -645.511
  O      839.358      71.837    -646.726
  H      839.869      69.976    -645.066
  H      837.204      69.843    -649.660
  H      838.060      71.304    -649.228
  H      836.491      70.973    -648.534

 6  7  8  9  10  11  12  13  14  15  16  26  30  31  32  33  35 0
 6-311+G(2d,p)
 ****
 37  38 0
 6-311+G(2d,p)
 ****
 1  2  3  4  5  17  18  19  20  21  22  23  24  25 0
 3-21G
 ****
 27  28  29  34  36  39  40  41  42  43  44  45  46 0
 3-21G
 ****


