%nproc=1
%NoSave
%Mem=1900MB
#P OB98/GEN NMR

erre ene a

0 1
  C     -202.283     884.874    -163.661
  O     -203.021     884.897    -162.431
  P     -204.047     886.107    -162.208
  C     -205.929     884.672    -161.142
  O     -205.011     885.743    -160.976
  C     -205.254     883.312    -160.898
  O     -204.419     883.357    -159.706
  C     -206.246     882.164    -160.698
  O     -205.639     880.958    -161.175
  C     -206.360     882.084    -159.186
  O     -206.887     880.829    -158.762
  C     -204.908     882.360    -158.790
  N     -203.327     881.107    -154.166
  C     -203.331     880.372    -155.338
  N     -202.804     879.132    -155.272
  N     -203.808     880.820    -156.470
  C     -204.273     882.090    -156.393
  C     -204.331     882.916    -155.292
  C     -203.822     882.399    -154.039
  O     -203.806     883.002    -152.969
  N     -204.896     884.126    -155.606
  C     -205.183     884.025    -156.893
  N     -204.793     882.824    -157.419
  O     -205.013     885.994    -163.482
  O     -203.397     887.448    -162.137
  H     -206.784     880.784    -157.787
  H     -204.830     886.727    -164.095
  H     -202.954     880.713    -153.321
  H     -205.668     884.787    -157.485
  H     -204.277     881.471    -158.879
  H     -207.023     882.876    -158.821
  H     -202.375     878.752    -154.446
  H     -207.214     882.300    -161.188
  H     -202.752     878.589    -156.125
  H     -204.598     883.090    -161.748
  H     -206.351     884.687    -162.152
  H     -206.776     884.823    -160.462
  P     -206.231     880.332    -162.524
  C     -204.444     878.675    -163.411
  O     -205.617     878.857    -162.648
  O     -205.485     881.150    -163.683
  O     -207.722     880.416    -162.655
  H     -206.022     881.149    -164.496
  H     -203.588     878.558    -162.731
  H     -204.254     879.520    -164.084
  H     -204.547     877.768    -164.003
  H     -201.641     884.018    -163.676
  H     -201.693     885.763    -163.740
  H     -202.964     884.823    -164.485

 3  4  5  6  7  8  9  10  11  12  23  26  30  31 0
 6-311+G(2d,p)
 ****
 33  35  36  37  38 0
 6-311+G(2d,p)
 ****
 1  2  13  14  15  16  17  18  19  20  21  22  24  25 0
 3-21G
 ****
 27  28  29  32  34  39  40  41  42  43  44  45  46  47  48  49 0
 3-21G
 ****


