%nproc=1
%NoSave
%Mem=1900MB
#P OB98/GEN NMR

erre ene a

0 1
  C      -33.325      21.442      14.712
  O      -33.454      21.303      16.116
  P      -32.992      19.917      16.773
  C      -30.433      20.415      16.849
  O      -31.488      19.642      16.293
  C      -29.656      19.573      17.863
  O      -30.498      19.236      18.987
  C      -29.167      18.245      17.304
  O      -28.003      18.412      16.512
  C      -28.925      17.445      18.577
  O      -27.638      17.747      19.139
  C      -30.054      17.959      19.494
  N      -31.157      17.010      19.612
  C      -30.908      15.883      20.391
  O      -29.823      15.671      20.933
  N      -31.936      14.986      20.490
  C      -33.142      15.073      19.858
  O      -34.004      14.208      19.941
  C      -33.338      16.273      19.024
  C      -32.351      17.166      18.937
  O      -33.850      18.816      15.991
  O      -33.194      19.832      18.248
  H      -26.997      17.708      18.402
  H      -34.090      18.090      16.597
  H      -31.785      14.176      21.069
  H      -34.282      16.374      18.507
  H      -32.470      18.048      18.318
  H      -29.662      18.156      20.500
  H      -28.951      16.366      18.398
  H      -29.966      17.764      16.726
  H      -28.812      20.169      18.234
  H      -30.851      21.296      17.344
  H      -29.774      20.753      16.043
  P      -27.738      17.317      15.367
  C      -29.354      18.770      13.916
  O      -28.959      17.485      14.342
  O      -28.047      15.966      16.169
  O      -26.367      17.400      14.786
  H      -28.735      16.089      16.844
  H      -28.496      19.438      13.812
  H      -30.057      19.190      14.639
  H      -29.853      18.681      12.947
  H      -33.669      22.411      14.416
  H      -33.911      20.691      14.224
  H      -32.298      21.329      14.435

 3  4  5  6  7  8  9  10  11  12  13  23  28  29  30  31  32 0
 6-311+G(2d,p)
 ****
 33  34 0
 6-311+G(2d,p)
 ****
 1  2  14  15  16  17  18  19  20  21  22  24  25  26 0
 3-21G
 ****
 27  35  36  37  38  39  40  41  42  43  44  45 0
 3-21G
 ****


