%nproc=1
%NoSave
%Mem=1900MB
#P OB98/GEN NMR

erre ene a

0 1
  C      121.135    -382.002     133.120
  O      120.572    -381.213     132.093
  H      120.823    -381.591     134.089
  H      122.225    -381.963     133.067
  H      120.793    -383.036     133.048
  P      120.759    -381.670     130.570
  C      122.911    -380.369     129.998
  O      122.332    -381.640     130.249
  C      124.156    -380.504     129.113
  O      124.693    -379.176     128.862
  C      125.268    -381.349     129.734
  O      125.904    -382.116     128.707
  C      126.230    -380.323     130.287
  O      127.565    -380.821     130.374
  C      126.072    -379.172     129.287
  N      129.914    -376.062     130.359
  C      129.900    -377.261     129.654
  N      131.091    -377.702     129.188
  N      128.820    -377.957     129.442
  C      127.700    -377.381     129.945
  C      127.577    -376.206     130.650
  C      128.789    -375.454     130.899
  O      128.865    -374.399     131.523
  N      126.271    -375.975     131.009
  C      125.608    -377.006     130.525
  N      126.427    -377.891     129.881
  O      119.905    -380.934     129.581
  O      120.423    -383.232     130.580
  H      127.819    -381.128     129.480
  H      119.540    -383.407     130.195
  H      130.776    -375.575     130.497
  H      124.543    -377.156     130.617
  H      126.705    -379.307     128.397
  H      125.913    -380.019     131.293
  H      131.960    -377.198     129.301
  H      124.889    -382.025     130.505
  H      131.109    -378.564     128.653
  H      123.849    -380.904     128.139
  H      123.191    -379.921     130.956
  H      122.169    -379.723     129.506
  P      125.776    -383.712     128.724
  C      127.198    -384.373     130.772
  O      125.885    -384.229     130.248
  O      126.652    -384.438     127.756
  O      124.228    -383.945     128.386
  H      124.143    -384.765     127.859
  H      127.143    -384.719     131.783
  H      127.698    -383.427     130.746
  H      127.742    -385.081     130.182

 6  7  8  9  10  11  12  13  14  15  26  29  33  34 0
 6-311+G(2d,p)
 ****
 36  38  39  40  41 0
 6-311+G(2d,p)
 ****
 1  2  3  4  5  16  17  18  19  20  21  22  23  24  25 0
 3-21G
 ****
 27  28  30  31  32  35  37  42  43  44  45  46  47 0
 3-21G
 ****
 48  49 0
 3-21G
 ****


