%nproc=1
%NoSave
%Mem=1900MB
#P OB98/GEN NMR

erre ene a

0 1
  C     -375.099     409.000      74.556
  O     -375.124     410.138      73.680
  P     -375.631     410.068      72.158
  C     -378.173     410.192      72.621
  O     -377.037     410.839      72.067
  C     -379.468     410.747      72.012
  O     -380.589     409.901      72.363
  C     -379.874     412.126      72.504
  O     -379.062     413.155      71.966
  C     -381.334     412.183      72.062
  O     -381.451     412.600      70.692
  C     -381.779     410.711      72.204
  N     -382.706     410.503      73.304
  C     -383.843     411.312      73.323
  O     -383.992     412.205      72.489
  N     -384.785     411.094      74.304
  C     -384.556     410.226      75.235
  N     -385.530     410.047      76.169
  C     -383.305     409.456      75.329
  C     -382.435     409.638      74.340
  O     -375.665     408.689      71.593
  O     -374.625     411.006      71.337
  H     -374.589     410.709      70.407
  H     -381.002     411.918      70.151
  H     -383.136     408.769      76.152
  H     -381.493     409.096      74.321
  H     -382.240     410.363      71.273
  H     -381.923     412.887      72.661
  H     -379.825     412.150      73.601
  H     -379.357     410.746      70.919
  H     -386.381     410.583      76.070
  H     -378.187     410.371      73.701
  H     -385.461     409.376      76.924
  H     -378.094     409.112      72.450
  P     -378.129     413.956      72.991
  C     -375.772     412.928      72.649
  O     -376.651     413.999      72.376
  O     -377.998     412.964      74.238
  O     -378.670     415.283      73.412
  H     -378.015     413.474      75.070
  H     -375.052     412.845      71.831
  H     -376.307     411.979      72.751
  H     -375.225     413.134      73.574
  H     -374.723     409.295      75.513
  H     -374.465     408.245      74.141
  H     -376.090     408.613      74.666

 3  4  5  6  7  8  9  10  11  12  13  24  27  28  29  30  32 0
 6-311+G(2d,p)
 ****
 34  35 0
 6-311+G(2d,p)
 ****
 1  2  14  15  16  17  18  19  20  21  22  23  25  26 0
 3-21G
 ****
 31  33  36  37  38  39  40  41  42  43  44  45  46 0
 3-21G
 ****


