%nproc=1
%NoSave
%Mem=1900MB
#P OB98/GEN NMR

erre ene a

0 1
  C       50.776     128.847    -130.827
  O       51.943     129.441    -130.296
  H       50.280     129.574    -131.477
  H       50.088     128.577    -130.020
  H       51.024     127.961    -131.416
  P       52.941     128.536    -129.424
  C       52.747     127.211    -127.218
  O       52.215     128.254    -128.023
  C       52.267     127.372    -125.776
  O       52.873     128.536    -125.175
  C       50.762     127.575    -125.649
  O       50.065     126.358    -125.822
  C       50.671     128.169    -124.250
  O       50.735     127.140    -123.251
  C       51.935     129.061    -124.208
  N       51.644     130.471    -124.465
  C       51.677     131.321    -123.362
  O       51.902     130.933    -122.214
  N       51.411     132.640    -123.619
  C       51.012     133.159    -124.816
  O       50.698     134.334    -124.973
  C       50.970     132.212    -125.940
  C       51.284     130.931    -125.716
  O       54.342     129.036    -129.319
  O       52.884     127.108    -130.149
  H       50.973     127.584    -122.416
  H       53.702     126.972    -130.664
  H       51.418     133.270    -122.832
  H       50.673     132.588    -126.908
  H       51.253     130.217    -126.530
  H       52.421     128.982    -123.228
  H       49.742     128.715    -124.094
  H       50.421     128.324    -126.374
  H       52.594     126.490    -125.205
  H       53.843     127.267    -127.245
  H       52.430     126.247    -127.629
  P       48.773     126.305    -126.765
  C       46.423     127.353    -126.788
  O       47.579     127.061    -126.004
  O       48.424     124.954    -127.298
  O       49.133     127.307    -127.960
  H       49.130     126.820    -128.807
  H       45.698     127.854    -126.181
  H       46.006     126.441    -127.162
  H       46.698     127.983    -127.608

 6  7  8  9  10  11  12  13  14  15  16  26  31  32  33  34  35 0
 6-311+G(2d,p)
 ****
 36  37 0
 6-311+G(2d,p)
 ****
 1  2  3  4  5  17  18  19  20  21  22  23  24  25 0
 3-21G
 ****
 27  28  29  30  38  39  40  41  42  43  44  45 0
 3-21G
 ****


