%nproc=1
%NoSave
%Mem=1900MB
#P OB98/GEN NMR

erre ene a

0 1
  C     -235.726     811.416     984.718
  O     -235.810     812.285     985.835
  H     -236.717     811.321     984.272
  H     -235.384     810.427     985.034
  H     -235.040     811.828     983.979
  P     -234.473     812.478     986.701
  C     -233.464     814.144     984.981
  O     -233.317     812.915     985.682
  C     -232.162     814.943     985.060
  O     -231.974     815.425     986.416
  C     -230.909     814.120     984.757
  O     -230.704     813.938     983.368
  C     -229.839     814.992     985.394
  O     -229.409     816.034     984.503
  C     -230.553     815.561     986.623
  N     -230.121     814.910     987.857
  C     -229.508     815.744     988.800
  O     -229.338     816.949     988.618
  N     -229.060     815.139     989.935
  C     -229.116     813.798     990.201
  O     -228.636     813.304     991.219
  C     -229.756     812.960     989.168
  C     -230.211     813.545     988.057
  O     -234.081     810.984     987.108
  O     -234.623     813.367     987.894
  H     -234.281     810.839     988.054
  H     -230.209     816.536     984.270
  H     -228.618     815.724     990.628
  H     -229.814     811.893     989.349
  H     -230.679     812.958     987.282
  H     -230.350     816.644     986.719
  H     -228.963     814.399     985.634
  H     -230.945     813.161     985.282
  H     -232.228     815.799     984.395
  H     -234.264     814.731     985.420
  H     -233.723     813.923     983.933
  P     -230.069     812.540     982.884
  C     -232.239     811.041     982.662
  O     -231.085     811.404     983.408
  O     -228.797     812.437     983.840
  O     -229.759     812.514     981.427
  H     -228.941     812.923     984.678
  H     -232.774     810.274     983.183
  H     -231.942     810.679     981.700
  H     -232.870     811.897     982.542

 6  7  8  9  10  11  12  13  14  15  16  27  31  32  33  34  35 0
 6-311+G(2d,p)
 ****
 36  37 0
 6-311+G(2d,p)
 ****
 1  2  3  4  5  17  18  19  20  21  22  23  24  25 0
 3-21G
 ****
 26  28  29  30  38  39  40  41  42  43  44  45 0
 3-21G
 ****


