%nproc=1
%NoSave
%Mem=1900MB
#P OB98/GEN NMR

erre ene a

0 1
  C     -215.735    -183.957     195.889
  O     -215.559    -185.214     195.262
  H     -216.806    -183.735     195.935
  H     -215.242    -183.164     195.320
  H     -215.339    -183.981     196.908
  P     -214.063    -185.694     194.937
  C     -214.446    -188.049     195.942
  O     -213.729    -186.821     196.025
  C     -214.247    -188.859     197.218
  O     -214.691    -188.106     198.364
  C     -215.049    -190.155     197.239
  O     -214.448    -191.135     196.416
  C     -215.060    -190.461     198.725
  O     -213.830    -191.064     199.141
  C     -215.215    -189.048     199.330
  N     -216.598    -188.728     199.676
  C     -217.067    -189.266     200.880
  O     -216.334    -189.959     201.583
  N     -218.372    -189.021     201.238
  C     -219.129    -188.295     200.476
  N     -220.407    -188.092     200.890
  C     -218.667    -187.697     199.208
  C     -217.405    -187.960     198.869
  O     -213.022    -184.623     194.818
  O     -214.223    -186.531     193.582
  H     -213.134    -190.399     198.971
  H     -214.120    -185.949     192.808
  H     -219.332    -187.092     198.610
  H     -216.986    -187.556     197.954
  H     -214.601    -188.950     200.237
  H     -215.866    -191.144     198.985
  H     -216.081    -189.962     196.922
  H     -213.174    -189.058     197.341
  H     -220.684    -188.530     201.761
  H     -214.051    -188.598     195.080
  H     -221.059    -187.474     200.428
  H     -215.512    -187.860     195.773
  P     -215.264    -191.794     195.200
  C     -213.305    -192.140     193.560
  O     -214.468    -191.374     193.871
  O     -216.730    -191.506     195.188
  O     -214.922    -193.353     195.345
  H     -215.410    -193.760     196.104
  H     -212.864    -191.768     192.659
  H     -213.579    -193.166     193.426
  H     -212.601    -192.060     194.361

 6  7  8  9  10  11  12  13  14  15  16  26  30  31  32  33  35 0
 6-311+G(2d,p)
 ****
 37  38 0
 6-311+G(2d,p)
 ****
 1  2  3  4  5  17  18  19  20  21  22  23  24  25 0
 3-21G
 ****
 27  28  29  34  36  39  40  41  42  43  44  45  46 0
 3-21G
 ****


