%nproc=1
%NoSave
%Mem=1900MB
#P OB98/GEN NMR

erre ene a

0 1
  C      449.642     120.016     118.584
  O      448.440     120.138     117.858
  H      450.123     119.074     118.301
  H      449.439     119.985     119.659
  H      450.320     120.839     118.353
  P      447.497     121.415     118.109
  C      448.411     122.422     115.932
  O      447.242     122.046     116.648
  C      448.454     123.934     115.706
  O      449.822     124.346     115.430
  C      447.582     124.409     114.533
  O      446.808     125.544     114.932
  C      448.599     124.833     113.483
  O      448.083     125.787     112.560
  C      449.750     125.319     114.373
  N      451.000     125.434     113.635
  C      451.270     126.683     113.066
  O      450.470     127.611     113.207
  N      452.402     126.836     112.311
  C      453.177     125.818     112.099
  N      454.267     126.030     111.316
  C      452.917     124.474     112.657
  C      451.824     124.357     113.413
  O      448.006     122.374     119.131
  O      446.067     120.800     118.479
  H      448.750     125.931     111.853
  H      445.549     121.475     118.979
  H      453.592     123.658     112.448
  H      451.552     123.407     113.865
  H      449.514     126.294     114.820
  H      448.918     123.951     112.910
  H      446.915     123.638     114.153
  H      448.166     124.432     116.640
  H      454.403     126.965     110.946
  H      448.419     121.891     114.972
  H      454.926     125.311     111.062
  H      449.287     122.124     116.516
  P      445.253     125.272     115.223
  C      445.145     124.636     117.739
  O      444.962     125.648     116.757
  O      445.145     123.676     115.187
  O      444.342     125.907     114.223
  H      444.651     123.393     114.393
  H      444.915     125.032     118.706
  H      446.162     124.303     117.723
  H      444.496     123.812     117.527

 6  7  8  9  10  11  12  13  14  15  16  26  30  31  32  33  35 0
 6-311+G(2d,p)
 ****
 37  38 0
 6-311+G(2d,p)
 ****
 1  2  3  4  5  17  18  19  20  21  22  23  24  25 0
 3-21G
 ****
 27  28  29  34  36  39  40  41  42  43  44  45  46 0
 3-21G
 ****


