%nproc=1
%NoSave
%Mem=1900MB
#P OB98/GEN NMR

erre ene a

0 1
  C     -225.509     166.023     -84.900
  O     -226.802     165.591     -85.276
  H     -225.111     165.330     -84.156
  H     -225.571     167.019     -84.454
  H     -224.835     166.041     -85.758
  P     -227.501     166.248     -86.556
  C     -227.272     164.312     -88.244
  O     -228.146     165.045     -87.395
  C     -227.703     162.847     -88.345
  O     -227.553     162.221     -87.034
  C     -229.163     162.653     -88.780
  O     -229.236     161.421     -89.509
  C     -229.870     162.523     -87.442
  O     -231.152     161.945     -87.590
  C     -228.839     161.700     -86.662
  N     -229.061     161.762     -85.214
  C     -229.854     160.760     -84.661
  O     -230.376     159.871     -85.333
  N     -230.061     160.831     -83.310
  C     -229.610     161.824     -82.489
  O     -229.858     161.859     -81.296
  C     -228.822     162.886     -83.136
  C     -228.580     162.808     -84.444
  O     -226.642     167.175     -87.352
  O     -228.791     166.991     -85.964
  H     -231.595     162.304     -88.384
  H     -229.006     167.770     -86.509
  H     -230.621     160.107     -82.897
  H     -228.465     163.690     -82.513
  H     -228.000     163.572     -84.951
  H     -228.879     160.642     -86.965
  H     -230.004     163.501     -86.979
  H     -229.543     163.478     -89.391
  H     -227.014     162.323     -89.024
  H     -226.260     164.375     -87.826
  H     -227.270     164.765     -89.239
  P     -230.236     161.208     -90.743
  C     -228.388     161.543     -92.508
  O     -229.397     160.678     -92.003
  O     -231.099     162.397     -91.042
  O     -231.133     159.950     -90.325
  H     -232.005     160.008     -90.757
  H     -227.904     161.078     -93.342
  H     -227.668     161.737     -91.741
  H     -228.832     162.464     -92.822

 6  7  8  9  10  11  12  13  14  15  16  26  31  32  33  34  35 0
 6-311+G(2d,p)
 ****
 36  37 0
 6-311+G(2d,p)
 ****
 1  2  3  4  5  17  18  19  20  21  22  23  24  25 0
 3-21G
 ****
 27  28  29  30  38  39  40  41  42  43  44  45 0
 3-21G
 ****


