%nproc=1
%NoSave
%Mem=1900MB
#P OB98/GEN NMR

erre ene a

0 1
  C      561.067     825.465    -587.522
  O      562.276     824.945    -587.008
  H      560.436     824.629    -587.836
  H      561.270     826.099    -588.387
  H      560.543     826.040    -586.755
  P      563.299     825.984    -586.338
  C      563.072     824.913    -583.982
  O      562.910     826.082    -584.778
  C      563.595     825.286    -582.599
  O      564.946     825.796    -582.722
  C      562.753     826.346    -581.894
  O      562.685     826.032    -580.488
  C      563.547     827.627    -582.071
  O      563.280     828.604    -581.065
  C      564.990     827.092    -582.088
  N      565.898     828.000    -582.784
  C      566.273     829.164    -582.088
  O      565.828     829.380    -580.967
  N      567.078     830.073    -582.722
  C      567.406     829.897    -583.973
  N      568.181     830.856    -584.548
  C      566.980     828.714    -584.755
  C      566.232     827.825    -584.108
  O      562.822     827.403    -586.913
  O      564.749     825.714    -586.593
  H      563.531     828.215    -580.189
  H      563.584     828.015    -587.018
  H      567.262     828.627    -585.787
  H      565.867     826.929    -584.604
  H      565.354     826.948    -581.060
  H      563.304     828.077    -583.053
  H      561.734     826.430    -582.283
  H      563.652     824.370    -581.990
  H      568.441     831.646    -583.978
  H      563.799     824.250    -584.466
  H      568.462     830.836    -585.517
  H      562.107     824.379    -583.906
  P      561.248     825.687    -579.905
  C      561.843     823.493    -578.615
  O      561.149     824.078    -579.713
  O      560.249     825.970    -581.124
  O      560.870     826.477    -578.699
  H      559.735     826.783    -580.954
  H      561.687     822.435    -578.617
  H      561.474     823.906    -577.699
  H      562.889     823.699    -578.704

 6  7  8  9  10  11  12  13  14  15  16  26  30  31  32  33  35 0
 6-311+G(2d,p)
 ****
 37  38 0
 6-311+G(2d,p)
 ****
 1  2  3  4  5  17  18  19  20  21  22  23  24  25 0
 3-21G
 ****
 27  28  29  34  36  39  40  41  42  43  44  45  46 0
 3-21G
 ****


