%nproc=1
%NoSave
%Mem=1900MB
#P OB98/GEN NMR

erre ene a

0 1
  C     -122.980      60.375     121.370
  O     -122.534      60.251     122.702
  H     -122.714      59.463     120.828
  H     -122.499      61.224     120.879
  H     -124.068      60.492     121.342
  P     -122.627      61.524     123.678
  C     -120.258      62.373     123.163
  O     -121.650      62.625     123.013
  C     -119.428      63.629     122.904
  O     -118.024      63.271     122.771
  C     -119.836      64.395     121.636
  O     -119.931      65.793     121.930
  C     -118.674      64.142     120.677
  O     -118.566      65.156     119.684
  C     -117.501      64.027     121.661
  N     -116.328      63.375     121.074
  C     -115.396      64.219     120.459
  O     -115.603      65.435     120.393
  N     -114.276      63.664     119.892
  C     -114.122      62.373     119.896
  N     -113.001      61.882     119.310
  C     -115.106      61.449     120.494
  C     -116.169      62.011     121.067
  O     -122.352      61.231     125.119
  O     -124.081      62.128     123.412
  H     -118.379      66.010     120.131
  H     -124.343      62.705     124.176
  H     -114.942      60.378     120.465
  H     -116.940      61.405     121.544
  H     -117.197      65.015     122.024
  H     -118.827      63.178     120.166
  H     -120.774      64.058     121.215
  H     -119.493      64.276     123.797
  H     -112.348      62.550     118.909
  H     -119.966      61.577     122.467
  H     -112.776      60.899     119.249
  H     -120.080      62.032     124.195
  P     -121.415      66.412     121.918
  C     -121.282      67.384     119.516
  O     -121.918      66.460     120.386
  O     -121.173      67.951     122.291
  O     -122.353      65.748     122.877
  H     -121.383      68.104     123.235
  H     -121.712      67.308     118.539
  H     -120.236      67.163     119.464
  H     -121.418      68.377     119.890

 6  7  8  9  10  11  12  13  14  15  16  26  30  31  32  33  35 0
 6-311+G(2d,p)
 ****
 37  38 0
 6-311+G(2d,p)
 ****
 1  2  3  4  5  17  18  19  20  21  22  23  24  25 0
 3-21G
 ****
 27  28  29  34  36  39  40  41  42  43  44  45  46 0
 3-21G
 ****


