%nproc=1
%NoSave
%Mem=1900MB
#P OB98/GEN NMR

erre ene a

0 1
  C       96.279     -43.837    -167.556
  O       95.198     -43.626    -166.637
  P       93.651     -43.718    -167.060
  C       92.889     -41.761    -165.563
  O       92.965     -42.277    -166.884
  C       91.564     -41.028    -165.311
  O       91.559     -39.744    -166.009
  C       90.311     -41.803    -165.770
  O       89.298     -41.558    -164.788
  C       89.985     -41.122    -167.092
  O       88.659     -41.342    -167.532
  C       90.303     -39.668    -166.720
  N       90.400     -38.741    -167.842
  C       89.213     -38.360    -168.479
  O       88.126     -38.832    -168.146
  N       89.281     -37.452    -169.511
  C       90.428     -36.973    -169.882
  N       90.424     -36.072    -170.901
  C       91.703     -37.359    -169.253
  C       91.618     -38.234    -168.252
  O       92.907     -44.817    -166.369
  O       93.655     -43.953    -168.645
  H       92.913     -44.543    -168.883
  H       88.553     -40.907    -168.398
  H       92.638     -36.931    -169.587
  H       92.509     -38.548    -167.718
  H       89.553     -39.302    -166.008
  H       90.664     -41.507    -167.859
  H       90.470     -42.883    -165.852
  H       91.499     -40.801    -164.239
  H       89.523     -35.825    -171.302
  H       93.712     -41.054    -165.418
  H       91.255     -35.630    -171.263
  H       93.011     -42.584    -164.849
  P       89.187     -42.518    -163.504
  C       86.801     -43.261    -164.251
  O       88.098     -43.646    -163.837
  O       88.387     -41.587    -162.467
  O       90.478     -42.971    -162.902
  H       88.598     -41.871    -161.558
  H       86.501     -43.886    -165.099
  H       86.757     -42.211    -164.557
  H       86.101     -43.423    -163.427
  H       97.211     -43.723    -167.043
  H       96.218     -43.121    -168.349
  H       96.214     -44.825    -167.962

 3  4  5  6  7  8  9  10  11  12  13  24  27  28  29  30  32 0
 6-311+G(2d,p)
 ****
 34  35 0
 6-311+G(2d,p)
 ****
 1  2  14  15  16  17  18  19  20  21  22  23  25  26 0
 3-21G
 ****
 31  33  36  37  38  39  40  41  42  43  44  45  46 0
 3-21G
 ****


