%nproc=1
%NoSave
%Mem=1900MB
#P OB98/GEN NMR

erre ene a

0 1
  C      -55.914      -8.818      44.542
  O      -55.589     -10.187      44.384
  P      -55.807     -10.864      42.946
  C      -58.000     -12.289      43.202
  O      -56.584     -12.243      43.204
  C      -58.487     -13.695      43.566
  O      -59.930     -13.754      43.389
  C      -57.876     -14.819      42.719
  O      -57.721     -15.959      43.575
  C      -58.950     -15.076      41.677
  O      -58.848     -16.367      41.092
  C      -60.216     -14.859      42.511
  N      -61.403     -14.580      41.704
  C      -62.052     -15.654      41.104
  O      -61.672     -16.822      41.196
  N      -63.156     -15.340      40.357
  C      -63.626     -14.085      40.098
  O      -64.612     -13.861      39.406
  C      -62.873     -12.986      40.719
  C      -61.822     -13.280      41.488
  O      -54.316     -11.318      42.589
  O      -56.447      -9.962      41.948
  H      -53.811     -11.612      43.367
  H      -58.829     -17.024      41.813
  H      -63.666     -16.109      39.943
  H      -63.205     -11.972      40.526
  H      -61.250     -12.486      41.953
  H      -60.402     -15.735      43.146
  H      -58.864     -14.333      40.874
  H      -56.909     -14.542      42.290
  H      -58.284     -13.865      44.631
  H      -58.370     -12.031      42.206
  H      -58.387     -11.546      43.908
  P      -56.228     -16.479      43.884
  C      -55.721     -17.830      41.701
  O      -56.022     -17.847      43.078
  O      -56.414     -16.982      45.398
  O      -55.160     -15.445      43.743
  H      -57.196     -17.546      45.516
  H      -55.295     -18.798      41.421
  H      -54.997     -17.049      41.458
  H      -56.637     -17.672      41.127
  H      -55.714      -8.518      45.549
  H      -56.951      -8.670      44.325
  H      -55.322      -8.231      43.871

 3  4  5  6  7  8  9  10  11  12  13  24  28  29  30  31  32 0
 6-311+G(2d,p)
 ****
 33  34 0
 6-311+G(2d,p)
 ****
 1  2  14  15  16  17  18  19  20  21  22  23  25  26  27 0
 3-21G
 ****
 35  36  37  38  39  40  41  42  43  44  45 0
 3-21G
 ****


