%nproc=1
%NoSave
%Mem=1900MB
#P OB98/GEN NMR

erre ene a

0 1
  C      192.647       5.844    -306.583
  O      191.446       5.809    -305.834
  H      192.406       5.691    -307.639
  H      193.328       5.049    -306.266
  H      193.135       6.815    -306.470
  P      191.550       5.854    -304.235
  C      189.727       7.688    -304.156
  O      190.130       6.391    -303.727
  C      188.500       8.140    -303.371
  O      187.313       7.505    -303.891
  C      188.560       7.768    -301.897
  O      189.435       8.626    -301.195
  C      187.094       7.873    -301.517
  O      186.710       9.235    -301.292
  C      186.406       7.305    -302.780
  N      186.048       5.897    -302.643
  C      185.064       5.605    -301.692
  O      184.548       6.505    -301.032
  N      184.709       4.293    -301.502
  C      185.270       3.360    -302.206
  N      184.874       2.081    -301.969
  C      186.301       3.628    -303.227
  C      186.641       4.904    -303.389
  O      192.728       6.577    -303.655
  O      191.525       4.309    -303.813
  H      185.764       9.207    -301.043
  H      192.431       3.949    -303.785
  H      186.737       2.820    -303.796
  H      187.389       5.189    -304.122
  H      185.496       7.871    -303.009
  H      186.876       7.312    -300.609
  H      188.865       6.724    -301.785
  H      188.385       9.224    -303.503
  H      184.170       1.944    -301.251
  H      189.490       7.616    -305.222
  H      185.174       1.287    -302.513
  H      190.542       8.408    -304.030
  P      190.597       8.024    -300.268
  C      191.733      10.337    -300.378
  O      191.256       9.292    -299.534
  O      191.555       7.113    -300.957
  O      189.782       7.313    -299.085
  H      189.368       6.469    -299.390
  H      192.147      11.120    -299.777
  H      190.922      10.724    -300.959
  H      192.488       9.952    -301.031

 6  7  8  9  10  11  12  13  14  15  16  26  30  31  32  33  35 0
 6-311+G(2d,p)
 ****
 37  38 0
 6-311+G(2d,p)
 ****
 1  2  3  4  5  17  18  19  20  21  22  23  24  25 0
 3-21G
 ****
 27  28  29  34  36  39  40  41  42  43  44  45  46 0
 3-21G
 ****


