%nproc=1
%NoSave
%Mem=1900MB
#P OB98/GEN NMR

erre ene a

0 1
  C     -164.926     607.993    -174.584
  O     -165.823     608.927    -175.143
  P     -165.607     609.499    -176.621
  C     -165.692     612.021    -176.141
  O     -166.360     610.918    -176.726
  C     -166.672     613.132    -175.776
  O     -167.136     613.784    -176.981
  C     -167.904     612.660    -174.995
  O     -168.207     613.660    -174.021
  C     -168.983     612.601    -176.055
  O     -170.288     612.667    -175.501
  C     -168.576     613.791    -176.933
  N     -169.151     613.713    -178.267
  C     -170.145     614.649    -178.573
  O     -170.591     615.395    -177.706
  N     -170.621     614.695    -179.871
  C     -170.262     613.774    -180.719
  N     -170.704     613.907    -182.003
  C     -169.409     612.633    -180.344
  C     -168.859     612.685    -179.139
  O     -165.931     608.545    -177.728
  O     -164.057     609.914    -176.664
  H     -163.631     609.488    -177.435
  H     -170.941     612.673    -176.236
  H     -169.239     611.824    -181.045
  H     -168.187     611.912    -178.786
  H     -168.882     614.734    -176.469
  H     -168.897     611.662    -176.620
  H     -167.738     611.706    -174.481
  H     -166.120     613.887    -175.188
  H     -171.262     614.715    -182.225
  H     -164.962     612.401    -176.867
  H     -170.237     613.432    -182.778
  H     -165.126     611.691    -175.260
  P     -168.366     613.214    -172.483
  C     -170.305     614.795    -171.783
  O     -168.934     614.476    -171.666
  O     -166.833     613.163    -171.992
  O     -169.015     611.891    -172.239
  H     -166.761     612.550    -171.239
  H     -170.498     615.712    -171.222
  H     -170.927     613.995    -171.372
  H     -170.569     614.975    -172.831
  H     -165.246     607.739    -173.595
  H     -163.946     608.420    -174.543
  H     -164.906     607.111    -175.190

 3  4  5  6  7  8  9  10  11  12  13  24  27  28  29  30  32 0
 6-311+G(2d,p)
 ****
 34  35 0
 6-311+G(2d,p)
 ****
 1  2  14  15  16  17  18  19  20  21  22  23  25  26 0
 3-21G
 ****
 31  33  36  37  38  39  40  41  42  43  44  45  46 0
 3-21G
 ****


