%nproc=1
%NoSave
%Mem=1900MB
#P OB98/GEN NMR

erre ene a

0 1
  C     -206.610     409.875     -53.883
  O     -207.625     410.385     -53.040
  H     -207.029     409.070     -54.488
  H     -205.797     409.469     -53.275
  H     -206.224     410.649     -54.548
  P     -207.368     411.757     -52.258
  C     -209.418     412.990     -53.224
  O     -208.803     412.446     -52.063
  C     -210.712     413.728     -52.865
  O     -211.740     412.742     -52.548
  C     -210.581     414.662     -51.654
  O     -211.491     415.751     -51.852
  C     -211.058     413.768     -50.522
  O     -211.405     414.523     -49.380
  C     -212.203     413.025     -51.217
  N     -212.592     411.807     -50.499
  C     -213.873     411.787     -49.955
  O     -214.650     412.738     -50.035
  N     -214.221     410.647     -49.281
  C     -213.407     409.580     -49.050
  O     -213.760     408.602     -48.406
  C     -212.043     409.677     -49.603
  C     -211.706     410.766     -50.295
  O     -206.323     412.648     -52.842
  O     -206.997     411.299     -50.770
  H     -210.636     415.043     -49.070
  H     -206.392     411.945     -50.362
  H     -215.149     410.617     -48.893
  H     -211.375     408.853     -49.425
  H     -210.711     410.867     -50.718
  H     -213.093     413.669     -51.294
  H     -210.274     413.070     -50.227
  H     -209.565     415.038     -51.507
  H     -211.061     414.275     -53.753
  H     -209.639     412.163     -53.908
  H     -208.725     413.677     -53.714
  P     -211.102     417.270     -51.515
  C     -210.481     417.825     -53.955
  O     -211.296     418.159     -52.838
  O     -209.763     417.425     -50.867
  O     -212.266     417.782     -50.541
  H     -211.922     418.479     -49.957
  H     -210.702     418.485     -54.768
  H     -210.678     416.816     -54.251
  H     -209.450     417.924     -53.686

 6  7  8  9  10  11  12  13  14  15  16  26  31  32  33  34  35 0
 6-311+G(2d,p)
 ****
 36  37 0
 6-311+G(2d,p)
 ****
 1  2  3  4  5  17  18  19  20  21  22  23  24  25 0
 3-21G
 ****
 27  28  29  30  38  39  40  41  42  43  44  45 0
 3-21G
 ****


