%nproc=1
%NoSave
%Mem=1900MB
#P OB98/GEN NMR

erre ene a

0 1
  C     -248.800     449.365     448.826
  O     -249.530     449.979     449.869
  H     -247.991     448.775     449.269
  H     -248.360     450.125     448.175
  H     -249.438     448.699     448.244
  P     -250.877     450.770     449.504
  C     -252.413     448.734     449.882
  O     -251.917     449.686     448.949
  C     -253.933     448.842     449.979
  O     -254.301     450.074     450.645
  C     -254.634     448.889     448.626
  O     -254.679     447.613     448.019
  C     -255.984     449.461     449.022
  O     -256.851     448.442     449.536
  C     -255.596     450.460     450.140
  N     -255.580     451.844     449.655
  C     -256.743     452.581     449.856
  O     -257.745     452.136     450.415
  N     -256.747     453.848     449.334
  C     -255.774     454.374     448.528
  O     -255.928     455.406     447.885
  C     -254.547     453.579     448.400
  C     -254.510     452.360     448.951
  O     -250.702     451.984     448.651
  O     -251.488     451.146     450.936
  H     -251.302     452.085     451.129
  H     -257.689     448.893     449.764
  H     -257.599     454.372     449.439
  H     -253.726     453.995     447.831
  H     -253.628     451.738     448.840
  H     -256.301     450.394     450.976
  H     -256.487     449.930     448.174
  H     -254.121     449.606     447.969
  H     -254.302     448.003     450.583
  H     -251.970     448.943     450.863
  H     -252.114     447.733     449.562
  P     -254.730     447.477     446.422
  C     -252.177     447.653     446.146
  O     -253.439     448.222     445.817
  O     -256.028     447.860     445.790
  O     -254.401     445.933     446.151
  H     -255.079     445.569     445.550
  H     -251.397     448.228     445.692
  H     -252.135     446.647     445.785
  H     -252.050     447.657     447.208

 6  7  8  9  10  11  12  13  14  15  16  27  31  32  33  34  35 0
 6-311+G(2d,p)
 ****
 36  37 0
 6-311+G(2d,p)
 ****
 1  2  3  4  5  17  18  19  20  21  22  23  24  25 0
 3-21G
 ****
 26  28  29  30  38  39  40  41  42  43  44  45 0
 3-21G
 ****


