%nproc=1
%NoSave
%Mem=1900MB
#P OB98/GEN NMR

erre ene a

0 1
  C       89.945    -109.844      -9.904
  O       88.992    -109.379     -10.843
  P       89.448    -108.262     -11.897
  C       88.543    -106.075     -10.828
  O       88.381    -107.064     -11.838
  C       87.311    -105.169     -10.747
  O       87.545    -104.114      -9.782
  C       86.956    -104.497     -12.080
  O       85.530    -104.353     -12.177
  C       87.543    -103.109     -11.939
  O       86.886    -102.174     -12.801
  C       87.320    -102.855     -10.450
  N       87.762     -97.930      -9.394
  C       86.630     -98.670      -9.671
  N       85.468     -97.981      -9.757
  N       86.634     -99.963      -9.832
  C       87.866    -100.516      -9.725
  C       89.063     -99.887      -9.439
  C       89.043     -98.453      -9.274
  O       90.017     -97.739      -9.054
  N       90.094    -100.789      -9.373
  C       89.539    -101.953      -9.663
  N       88.199    -101.832      -9.916
  O       89.150    -108.958     -13.309
  O       90.877    -107.854     -11.792
  H       87.316    -101.307     -12.652
  H       89.986    -109.243     -13.722
  H       87.714     -96.926      -9.286
  H       90.067    -102.897      -9.720
  H       86.287    -102.550     -10.241
  H       88.609    -103.118     -12.194
  H       85.413     -96.971      -9.705
  H       87.333    -105.021     -12.967
  H       84.635     -98.491     -10.002
  H       86.467    -105.765     -10.376
  H       89.419    -105.465     -11.065
  H       88.715    -106.565      -9.863
  P       84.801    -105.297     -13.259
  C       84.259    -103.158     -14.642
  O       83.779    -104.345     -14.043
  O       83.851    -106.219     -12.356
  O       85.737    -106.094     -14.102
  H       83.667    -107.063     -12.814
  H       84.120    -103.223     -15.726
  H       85.321    -102.984     -14.430
  H       83.679    -102.312     -14.265
  H       89.494    -110.582      -9.274
  H       90.286    -109.025      -9.307
  H       90.775    -110.277     -10.423

 3  4  5  6  7  8  9  10  11  12  23  26  30  31 0
 6-311+G(2d,p)
 ****
 33  35  36  37  38 0
 6-311+G(2d,p)
 ****
 1  2  13  14  15  16  17  18  19  20  21  22  24  25 0
 3-21G
 ****
 27  28  29  32  34  39  40  41  42  43  44  45  46  47  48  49 0
 3-21G
 ****


