%nproc=1
%NoSave
%Mem=1900MB
#P OB98/GEN NMR

erre ene a

0 1
  C       36.831     311.973     124.084
  O       37.273     311.596     125.376
  P       37.542     312.746     126.460
  C       39.992     311.952     126.983
  O       38.675     312.185     127.449
  C       40.506     310.604     127.502
  O       40.598     310.663     128.953
  C       39.619     309.406     127.146
  O       40.486     308.286     126.924
  C       38.802     309.203     128.411
  O       38.274     307.890     128.516
  C       39.841     309.556     129.480
  N       39.250     309.908     130.771
  C       38.913     308.872     131.636
  O       39.064     307.681     131.370
  N       38.360     309.253     132.831
  C       38.054     310.529     133.208
  O       37.541     310.810     134.285
  C       38.389     311.576     132.233
  C       38.970     311.225     131.086
  O       36.201     312.676     127.326
  O       37.838     314.078     125.861
  H       35.857     311.771     127.423
  H       37.602     307.890     129.222
  H       38.141     308.520     133.490
  H       38.149     312.600     132.491
  H       39.224     311.979     130.352
  H       40.542     308.722     129.611
  H       37.965     309.908     128.417
  H       39.008     309.585     126.257
  H       41.523     310.457     127.117
  H       40.651     312.746     127.341
  H       39.998     311.977     125.889
  P       40.889     307.926     125.407
  C       39.497     305.737     125.054
  O       40.760     306.340     125.242
  O       42.477     308.150     125.475
  O       40.228     308.769     124.366
  H       42.886     307.714     126.238
  H       39.643     304.738     124.636
  H       38.876     306.316     124.366
  H       38.989     305.643     126.016
  H       36.698     311.098     123.483
  H       37.560     312.611     123.630
  H       35.901     312.495     124.164

 3  4  5  6  7  8  9  10  11  12  13  24  28  29  30  31  32 0
 6-311+G(2d,p)
 ****
 33  34 0
 6-311+G(2d,p)
 ****
 1  2  14  15  16  17  18  19  20  21  22  23  25  26  27 0
 3-21G
 ****
 35  36  37  38  39  40  41  42  43  44  45 0
 3-21G
 ****


