%nproc=1
%NoSave
%Mem=1900MB
#P OB98/GEN NMR

erre ene a

0 1
  C      402.974    -395.019    -553.088
  O      402.188    -394.735    -551.924
  P      401.933    -393.202    -551.503
  C      399.668    -392.872    -552.768
  O      401.032    -392.504    -552.629
  C      398.829    -391.662    -553.194
  O      398.795    -390.674    -552.134
  C      399.376    -390.919    -554.404
  O      399.091    -391.608    -555.618
  C      398.664    -389.581    -554.288
  O      397.330    -389.654    -554.839
  C      398.603    -389.384    -552.755
  N      399.578    -388.412    -552.280
  C      399.112    -387.439    -551.405
  O      397.930    -387.346    -551.070
  N      400.050    -386.551    -550.938
  C      401.363    -386.498    -551.312
  O      402.146    -385.668    -550.874
  C      401.781    -387.500    -552.311
  C      400.884    -388.387    -552.741
  O      403.376    -392.544    -551.771
  O      401.505    -392.984    -550.089
  H      396.940    -390.487    -554.511
  H      403.496    -391.776    -551.178
  H      399.734    -385.856    -550.277
  H      402.809    -387.476    -552.647
  H      401.177    -389.131    -553.480
  H      397.603    -389.049    -552.458
  H      399.185    -388.778    -554.820
  H      400.457    -390.760    -554.296
  H      397.806    -392.002    -553.373
  H      399.294    -393.241    -551.803
  H      399.585    -393.677    -553.505
  P      400.236    -392.586    -556.173
  C      399.145    -394.680    -555.038
  O      400.268    -393.827    -555.157
  O      401.553    -391.738    -555.842
  O      400.064    -392.924    -557.615
  H      401.457    -391.215    -555.023
  H      398.624    -394.788    -555.990
  H      398.458    -394.272    -554.291
  H      399.495    -395.659    -554.716
  H      403.043    -396.078    -553.222
  H      403.955    -394.610    -552.964
  H      402.511    -394.581    -553.947

 3  4  5  6  7  8  9  10  11  12  13  23  28  29  30  31  32 0
 6-311+G(2d,p)
 ****
 33  34 0
 6-311+G(2d,p)
 ****
 1  2  14  15  16  17  18  19  20  21  22  24  25  26 0
 3-21G
 ****
 27  35  36  37  38  39  40  41  42  43  44  45 0
 3-21G
 ****


