%nproc=1
%NoSave
%Mem=1900MB
#P OB98/GEN NMR

erre ene a

0 1
  C      354.177     269.624      87.230
  O      353.079     270.113      86.485
  H      354.167     268.532      87.191
  H      354.089     269.940      88.273
  H      355.118     269.985      86.806
  P      353.014     271.703      86.260
  C      350.600     271.919      87.265
  O      351.454     272.052      86.144
  C      349.426     270.994      86.939
  O      348.699     271.544      85.816
  C      349.844     269.571      86.573
  O      348.880     268.660      87.101
  C      349.788     269.562      85.054
  O      349.614     268.245      84.534
  C      348.634     270.537      84.784
  N      348.710     271.130      83.453
  C      348.435     270.286      82.368
  O      348.167     269.101      82.564
  N      348.512     270.793      81.096
  C      348.901     272.017      80.915
  N      348.978     272.454      79.627
  C      349.252     272.928      82.022
  C      349.126     272.429      83.248
  O      353.550     271.840      84.757
  O      353.777     272.496      87.266
  H      349.652     268.297      83.554
  H      353.207     271.157      84.157
  H      349.585     273.936      81.818
  H      349.353     273.030      84.123
  H      347.667     270.025      84.879
  H      350.725     269.963      84.645
  H      350.837     269.302      86.937
  H      348.736     270.996      87.790
  H      348.748     271.793      78.894
  H      350.217     272.898      87.571
  H      349.318     273.366      79.367
  H      351.188     271.509      88.092
  P      348.898     268.318      88.664
  C      349.927     265.961      88.479
  O      348.791     266.729      88.853
  O      347.968     269.117      89.516
  O      350.426     268.606      89.075
  H      350.425     269.016      89.962
  H      349.729     264.924      88.652
  H      350.771     266.266      89.062
  H      350.136     266.115      87.441

 6  7  8  9  10  11  12  13  14  15  16  26  30  31  32  33  35 0
 6-311+G(2d,p)
 ****
 37  38 0
 6-311+G(2d,p)
 ****
 1  2  3  4  5  17  18  19  20  21  22  23  24  25 0
 3-21G
 ****
 27  28  29  34  36  39  40  41  42  43  44  45  46 0
 3-21G
 ****


