%nproc=1
%NoSave
%Mem=1900MB
#P OB98/GEN NMR

erre ene a

0 1
  C      263.724      -1.000    -168.299
  O      264.079      -0.240    -167.157
  P      265.401      -0.680    -166.354
  C      267.919      -0.766    -166.980
  O      266.575      -0.792    -167.442
  C      268.780      -1.797    -167.712
  O      268.418      -3.122    -167.254
  C      268.634      -1.766    -169.236
  O      269.914      -2.035    -169.804
  C      267.710      -2.935    -169.525
  O      267.877      -3.422    -170.854
  C      268.118      -3.919    -168.416
  N      267.074      -4.900    -168.137
  C      266.969      -5.978    -169.020
  O      267.684      -6.029    -170.020
  N      266.024      -6.943    -168.774
  C      265.186      -6.789    -167.798
  N      264.272      -7.773    -167.594
  C      265.184      -5.602    -166.918
  C      266.157      -4.718    -167.130
  O      265.097      -2.205    -165.979
  O      265.703       0.150    -165.152
  H      267.210      -4.128    -171.006
  H      265.514      -2.444    -165.130
  H      264.439      -5.504    -166.142
  H      266.247      -3.830    -166.520
  H      269.034      -4.458    -168.696
  H      266.665      -2.626    -169.398
  H      268.257      -0.809    -169.607
  H      269.827      -1.631    -167.429
  H      264.283      -8.570    -168.219
  H      267.934      -1.005    -165.914
  H      263.578      -7.737    -166.858
  H      268.329       0.240    -167.109
  P      270.242      -1.393    -171.237
  C      270.333       1.012    -172.130
  O      269.918       0.170    -171.073
  O      268.988      -1.890    -172.105
  O      271.530      -1.752    -171.897
  H      269.097      -1.613    -173.031
  H      269.933       2.014    -171.956
  H      269.953       0.642    -173.087
  H      271.425       1.071    -172.154
  H      262.831      -0.599    -168.731
  H      263.555      -2.017    -168.012
  H      264.517      -0.958    -169.016

 3  4  5  6  7  8  9  10  11  12  13  21  23  27  28  29  30  32 0
 6-311+G(2d,p)
 ****
 34  35 0
 6-311+G(2d,p)
 ****
 1  2  14  15  16  17  18  19  20  22  24  25  26 0
 3-21G
 ****
 31  33  36  37  38  39  40  41  42  43  44  45  46 0
 3-21G
 ****


