%nproc=1
%NoSave
%Mem=1900MB
#P OB98/GEN NMR

erre ene a

0 1
  C     -301.980      66.382      38.638
  O     -301.359      67.592      39.033
  H     -301.889      66.279      37.553
  H     -303.043      66.408      38.903
  H     -301.495      65.530      39.121
  P     -301.352      67.910      40.607
  C     -303.101      69.849      40.584
  O     -302.809      68.503      40.942
  C     -303.478      70.658      41.833
  O     -304.806      70.238      42.272
  C     -302.524      70.440      43.020
  O     -302.495      71.643      43.806
  C     -303.241      69.352      43.799
  O     -302.735      69.266      45.113
  C     -304.686      69.831      43.651
  N     -306.410      66.767      47.344
  C     -305.470      67.739      47.342
  N     -305.073      68.521      46.318
  C     -305.778      68.234      45.206
  C     -306.758      67.269      45.054
  C     -307.070      66.504      46.190
  N     -308.010      65.498      46.194
  N     -307.229      67.255      43.754
  C     -306.543      68.203      43.131
  N     -305.657      68.817      43.974
  O     -300.385      69.185      40.714
  O     -300.910      66.795      41.492
  H     -303.257      68.637      45.650
  H     -299.470      68.894      40.897
  H     -304.972      67.913      48.298
  H     -306.641      68.472      42.090
  H     -304.897      70.709      44.280
  H     -303.105      68.370      43.331
  H     -301.507      70.175      42.715
  H     -303.550      71.716      41.564
  H     -303.935      69.845      39.873
  H     -302.217      70.297      40.111
  H     -308.152      64.977      47.046
  H     -308.490      65.267      45.330
  P     -301.171      72.566      43.773
  C     -299.915      72.109      46.020
  O     -299.994      71.882      44.619
  O     -301.602      73.788      44.725
  O     -300.776      73.074      42.425
  H     -301.353      74.638      44.304
  H     -299.076      71.580      46.420
  H     -300.812      71.762      46.489
  H     -299.798      73.156      46.206

 6  7  8  9  10  11  12  13  14  15  25  28  32  33  34  35 0
 6-311+G(2d,p)
 ****
 36  37  40 0
 6-311+G(2d,p)
 ****
 1  2  3  4  5  16  17  18  19  20  21  22  23  24 0
 3-21G
 ****
 26  27  29  30  31  38  39 41  42  43  44  45  46  47  48 0
 3-21G
 ****


