%nproc=1
%NoSave
%Mem=1900MB
#P OB98/GEN NMR

erre ene a

0 1
  C     -297.668      66.257     364.816
  O     -296.950      65.822     363.677
  H     -298.651      65.794     364.816
  H     -297.787      67.342     364.789
  H     -297.142      65.965     365.733
  P     -295.393      66.187     363.593
  C     -295.083      66.704     361.062
  O     -294.901      65.769     362.116
  C     -294.852      66.026     359.718
  O     -293.412      65.896     359.510
  C     -295.452      64.609     359.611
  O     -295.923      64.427     358.258
  C     -294.266      63.700     359.854
  O     -294.410      62.407     359.313
  C     -293.139      64.518     359.181
  N     -291.818      64.115     359.637
  C     -291.166      63.105     358.908
  O     -291.586      62.608     357.882
  N     -289.967      62.695     359.430
  C     -289.385      63.145     360.585
  O     -288.308      62.720     361.009
  C     -290.119      64.194     361.303
  C     -291.284      64.620     360.814
  O     -294.713      65.080     364.531
  O     -295.034      67.578     363.996
  H     -294.661      65.399     365.455
  H     -294.866      61.850     359.980
  H     -289.483      61.966     358.927
  H     -289.698      64.575     362.231
  H     -291.851      65.385     361.324
  H     -293.208      64.415     358.091
  H     -294.086      63.612     360.933
  H     -296.272      64.423     360.308
  H     -295.233      66.677     358.914
  H     -294.371      67.534     361.176
  H     -296.109      67.113     361.111
  P     -297.484      64.083     358.070
  C     -297.415      62.457     356.017
  O     -297.658      63.761     356.507
  O     -298.134      65.531     358.270
  O     -297.970      63.041     359.010
  H     -297.585      66.253     357.909
  H     -297.581      62.436     354.960
  H     -298.078      61.767     356.496
  H     -296.402      62.181     356.224

 6  7  8  9  10  11  12  13  14  15  16  27  31  32  33  34  35 0
 6-311+G(2d,p)
 ****
 36  37 0
 6-311+G(2d,p)
 ****
 1  2  3  4  5  17  18  19  20  21  22  23  24  25 0
 3-21G
 ****
 26  28  29  30  38  39  40  41  42  43  44  45 0
 3-21G
 ****


