%nproc=1
%NoSave
%Mem=1900MB
#P OB98/GEN NMR

erre ene a

0 1
  C      -96.156    -127.986      51.821
  O      -95.356    -128.381      52.915
  H      -96.673    -127.061      52.085
  H      -96.901    -128.758      51.610
  H      -95.550    -127.806      50.931
  P      -94.250    -129.516      52.691
  C      -92.367    -127.915      51.951
  O      -93.235    -128.974      51.575
  C      -90.945    -128.437      52.193
  O      -90.386    -128.883      50.931
  C      -90.024    -127.333      52.724
  O      -88.968    -127.854      53.526
  C      -89.435    -126.748      51.450
  O      -88.196    -126.073      51.665
  C      -89.318    -127.991      50.572
  N      -87.269    -128.781      45.972
  C      -86.777    -129.121      47.217
  N      -85.583    -129.760      47.237
  N      -87.387    -128.842      48.339
  C      -88.533    -128.140      48.170
  C      -89.110    -127.725      46.992
  C      -88.442    -128.071      45.754
  O      -88.823    -127.774      44.627
  N      -90.270    -127.027      47.220
  C      -90.392    -127.015      48.531
  N      -89.376    -127.700      49.152
  O      -95.044    -130.666      51.906
  O      -93.606    -130.046      53.937
  H      -87.873    -125.774      50.795
  H      -94.597    -131.524      52.019
  H      -86.774    -129.046      45.139
  H      -91.199    -126.543      49.077
  H      -88.370    -128.511      50.762
  H      -90.139    -126.012      51.054
  H      -84.997    -129.814      46.418
  H      -90.560    -126.575      53.291
  H      -85.072    -129.734      48.123
  H      -90.973    -129.311      52.853
  H      -92.775    -127.476      52.864
  H      -92.366    -127.135      51.189
  P      -89.011    -127.601      55.106
  C      -91.268    -128.802      55.785
  O      -90.522    -127.617      55.618
  O      -88.572    -126.072      55.258
  O      -88.133    -128.516      55.902
  H      -87.725    -126.007      55.737
  H      -92.249    -128.559      56.136
  H      -90.780    -129.433      56.498
  H      -91.341    -129.313      54.848

 6  7  8  9  10  11  12  13  14  15  26  29  33  34 0
 6-311+G(2d,p)
 ****
 36  38  39  40  41 0
 6-311+G(2d,p)
 ****
 1  2  3  4  5  16  17  18  19  20  21  22  23  24  25 0
 3-21G
 ****
 27  28  30  31  32  35  37  42  43  44  45  46  47 0
 3-21G
 ****
 48  49 0
 3-21G
 ****


