%nproc=1
%NoSave
%Mem=1900MB
#P OB98/GEN NMR

erre ene a

0 1
  C      385.783    -888.430      75.117
  O      386.296    -889.720      74.849
  P      385.351    -891.010      74.906
  C      386.105    -891.460      77.329
  O      385.937    -892.010      76.034
  C      386.504    -892.550      78.328
  O      385.423    -893.480      78.518
  C      387.676    -893.390      77.881
  O      388.912    -892.700      77.974
  C      387.563    -894.600      78.805
  O      388.113    -894.300      80.096
  C      386.025    -894.740      78.889
  N      385.523    -895.860      78.098
  C      385.743    -897.140      78.612
  O      386.412    -897.290      79.623
  N      385.207    -898.210      77.941
  C      384.624    -898.030      76.797
  N      384.076    -899.110      76.191
  C      384.514    -896.700      76.151
  C      384.960    -895.670      76.861
  O      385.047    -891.650      73.608
  O      384.007    -890.460      75.607
  H      383.237    -890.740      75.076
  H      389.036    -893.980      79.940
  H      384.095    -896.610      75.159
  H      384.895    -894.650      76.455
  H      385.715    -894.910      79.946
  H      388.075    -895.480      78.419
  H      387.528    -893.720      76.838
  H      386.713    -892.060      79.287
  H      384.140    -900.000      76.677
  H      385.158    -891.010      77.657
  H      383.337    -899.030      75.501
  H      386.868    -890.670      77.288
  P      389.955    -892.900      76.768
  C      390.282    -895.350      77.588
  O      390.892    -894.160      77.160
  O      390.927    -891.640      76.887
  O      389.336    -892.990      75.407
  H      391.191    -891.340      75.991
  H      391.002    -896.160      77.459
  H      389.399    -895.590      76.969
  H      389.999    -895.260      78.626
  H      386.568    -887.708      75.028
  H      385.385    -888.404      76.110
  H      385.008    -888.202      74.416

 3  4  5  6  7  8  9  10  11  12  13  24  27  28  29  30  32 0
 6-311+G(2d,p)
 ****
 34  35 0
 6-311+G(2d,p)
 ****
 1  2  14  15  16  17  18  19  20  21  22  23  25  26 0
 3-21G
 ****
 31  33  36  37  38  39  40  41  42  43  44  45  46 0
 3-21G
 ****


