%nproc=1
%NoSave
%Mem=1900MB
#P OB98/GEN NMR

erre ene a

0 1
  C      -12.953      73.331    -259.311
  O      -12.495      72.540    -260.391
  H      -12.403      74.278    -259.310
  H      -12.776      72.829    -258.357
  H      -14.019      73.545    -259.423
  P      -13.040      71.038    -260.514
  C      -12.858      70.702    -263.074
  O      -12.304      70.417    -261.793
  C      -12.287      69.746    -264.115
  O      -10.904      70.061    -264.379
  C      -12.304      68.292    -263.668
  O      -13.608      67.752    -263.758
  C      -11.282      67.690    -264.615
  O      -11.849      67.437    -265.905
  C      -10.225      68.820    -264.685
  N       -9.102      68.599    -263.782
  C       -7.954      68.037    -264.354
  O       -7.928      67.763    -265.553
  N       -6.878      67.783    -263.543
  C       -6.932      68.076    -262.281
  N       -5.831      67.798    -261.533
  C       -8.115      68.680    -261.641
  C       -9.154      68.910    -262.442
  O      -14.528      70.857    -260.510
  O      -12.339      70.282    -259.288
  H      -12.017      68.315    -266.300
  H      -12.896      70.338    -258.491
  H       -8.112      68.916    -260.587
  H      -10.065      69.355    -262.053
  H       -9.835      68.915    -265.706
  H      -10.890      66.748    -264.232
  H      -11.918      68.207    -262.650
  H      -12.847      69.881    -265.052
  H       -5.043      67.374    -262.014
  H      -12.589      71.734    -263.317
  H       -5.723      68.062    -260.567
  H      -13.950      70.625    -263.049
  P      -14.001      66.432    -262.932
  C      -15.925      67.565    -261.641
  O      -15.567      66.583    -262.613
  O      -13.132      66.130    -261.761
  O      -13.977      65.286    -264.054
  H      -13.051      65.047    -264.307
  H      -16.988      67.572    -261.515
  H      -15.599      68.529    -261.971
  H      -15.457      67.330    -260.708

 6  7  8  9  10  11  12  13  14  15  16  26  30  31  32  33  35 0
 6-311+G(2d,p)
 ****
 37  38 0
 6-311+G(2d,p)
 ****
 1  2  3  4  5  17  18  19  20  21  22  23  24  25 0
 3-21G
 ****
 27  28  29  34  36  39  40  41  42  43  44  45  46 0
 3-21G
 ****


