%nproc=1
%NoSave
%Mem=1900MB
#P OB98/GEN NMR

erre ene a

0 1
  C     -228.946     108.445     -89.225
  O     -227.747     107.737     -89.494
  P     -226.544     107.712     -88.431
  C     -225.202     109.535     -89.679
  O     -225.252     108.179     -89.257
  C     -224.106     109.712     -90.725
  O     -222.813     109.594     -90.096
  C     -224.120     108.675     -91.839
  O     -225.151     108.946     -92.776
  C     -222.698     108.801     -92.371
  O     -222.589     109.939     -93.240
  C     -221.897     109.052     -91.077
  N     -221.239     107.852     -90.575
  C     -220.272     107.278     -91.404
  O     -219.992     107.776     -92.494
  N     -219.607     106.160     -90.965
  C     -219.898     105.644     -89.810
  N     -219.162     104.578     -89.397
  C     -220.950     106.185     -88.930
  C     -221.569     107.279     -89.368
  O     -226.382     106.424     -87.698
  O     -226.819     108.966     -87.483
  H     -222.574     110.730     -92.668
  H     -227.402     108.758     -86.713
  H     -221.167     105.713     -87.982
  H     -222.340     107.749     -88.771
  H     -221.139     109.826     -91.245
  H     -222.360     107.921     -92.928
  H     -224.271     107.671     -91.424
  H     -224.191     110.724     -91.144
  H     -218.342     104.353     -89.949
  H     -224.974     110.162     -88.810
  H     -219.126     104.308     -88.422
  H     -226.179     109.826     -90.076
  P     -226.074     107.720     -93.238
  C     -224.342     106.550     -94.773
  O     -225.544     107.295     -94.694
  O     -227.490     108.411     -93.515
  O     -226.170     106.611     -92.244
  H     -228.096     108.253     -92.767
  H     -224.251     106.147     -95.784
  H     -224.352     105.720     -94.063
  H     -223.486     107.202     -94.577
  H     -229.616     108.338     -90.052
  H     -228.723     109.481     -89.078
  H     -229.403     108.050     -88.342

 3  4  5  6  7  8  9  10  11  12  13  23  27  28  29  30  32 0
 6-311+G(2d,p)
 ****
 34  35 0
 6-311+G(2d,p)
 ****
 1  2  14  15  16  17  18  19  20  21  22  24  25  26 0
 3-21G
 ****
 31  33  36  37  38  39  40  41  42  43  44  45  46 0
 3-21G
 ****


