%nproc=1
%NoSave
%Mem=1900MB
#P OB98/GEN NMR

erre ene a

0 1
  C      -50.043     247.547      23.270
  O      -50.534     247.598      21.944
  H      -49.195     248.232      23.356
  H      -49.706     246.539      23.522
  H      -50.820     247.866      23.968
  P      -51.596     246.486      21.487
  C      -53.520     247.777      22.618
  O      -52.782     246.558      22.570
  C      -54.774     247.630      23.480
  O      -55.436     248.903      23.637
  C      -55.832     246.712      22.890
  O      -55.462     245.355      22.819
  C      -57.068     247.107      23.684
  O      -57.130     246.459      24.954
  C      -56.835     248.627      23.875
  N      -57.697     249.432      23.016
  C      -58.455     250.406      23.654
  O      -58.441     250.589      24.872
  N      -59.267     251.152      22.845
  C      -59.425     250.991      21.501
  O      -60.186     251.683      20.834
  C      -58.626     249.918      20.887
  C      -57.809     249.200      21.662
  O      -51.042     245.106      21.286
  O      -52.264     247.108      20.175
  H      -57.837     246.900      25.463
  H      -52.754     246.420      19.662
  H      -59.813     251.877      23.287
  H      -58.735     249.754      19.825
  H      -57.206     248.402      21.230
  H      -57.034     248.912      24.917
  H      -57.991     246.868      23.153
  H      -56.018     247.025      21.854
  H      -54.464     247.292      24.475
  H      -53.814     248.028      21.594
  H      -52.882     248.574      23.010
  P      -56.236     244.268      21.946
  C      -54.729     244.343      19.810
  O      -56.001     244.599      20.395
  O      -57.619     243.918      22.387
  O      -55.309     242.962      22.154
  H      -55.904     242.184      22.152
  H      -54.749     244.620      18.777
  H      -54.500     243.301      19.895
  H      -53.981     244.915      20.318

 6  7  8  9  10  11  12  13  14  15  16  26  31  32  33  34  35 0
 6-311+G(2d,p)
 ****
 36  37 0
 6-311+G(2d,p)
 ****
 1  2  3  4  5  17  18  19  20  21  22  23  24  25 0
 3-21G
 ****
 27  28  29  30  38  39  40  41  42  43  44  45 0
 3-21G
 ****


