%nproc=1
%NoSave
%Mem=1900MB
#P OB98/GEN NMR

erre ene a

0 1
  C      268.180     191.454     -66.732
  O      267.132     192.244     -67.253
  H      268.979     192.121     -66.390
  H      268.588     190.796     -67.502
  H      267.829     190.865     -65.881
  P      265.911     191.519     -68.002
  C      264.188     193.099     -66.936
  O      264.784     192.666     -68.157
  C      262.988     194.011     -67.196
  O      263.452     195.316     -67.632
  C      262.024     193.484     -68.268
  O      260.677     193.599     -67.795
  C      262.254     194.415     -69.449
  O      261.125     194.473     -70.318
  C      262.607     195.720     -68.727
  N      263.278     196.688     -69.593
  C      262.449     197.463     -70.414
  O      261.230     197.296     -70.404
  N      263.026     198.388     -71.247
  C      264.319     198.496     -71.298
  N      264.831     199.427     -72.153
  C      265.230     197.665     -70.483
  C      264.650     196.796     -69.659
  O      265.438     190.260     -67.354
  O      266.420     191.314     -69.503
  H      260.316     194.588     -69.766
  H      265.881     190.611     -69.941
  H      266.302     197.785     -70.568
  H      265.236     196.149     -69.011
  H      261.710     196.195     -68.311
  H      263.115     194.069     -70.031
  H      262.206     192.449     -68.538
  H      262.470     194.175     -66.245
  H      264.169     199.975     -72.697
  H      264.946     193.624     -66.344
  H      265.820     199.591     -72.275
  H      263.852     192.213     -66.388
  P      259.886     192.215     -67.581
  C      258.495     192.983     -65.529
  O      258.476     192.558     -66.886
  O      260.723     191.494     -66.419
  O      259.800     191.373     -68.806
  H      261.313     190.820     -66.797
  H      257.495     193.174     -65.201
  H      259.076     193.878     -65.444
  H      258.929     192.217     -64.921

 6  7  8  9  10  11  12  13  14  15  16  26  30  31  32  33  35 0
 6-311+G(2d,p)
 ****
 37  38 0
 6-311+G(2d,p)
 ****
 1  2  3  4  5  17  18  19  20  21  22  23  24  25 0
 3-21G
 ****
 27  28  29  34  36  39  40  41  42  43  44  45  46 0
 3-21G
 ****


