%nproc=1
%NoSave
%Mem=1900MB
#P OB98/GEN NMR

erre ene a

0 1
  C     -221.915     420.876      43.761
  O     -222.037     420.074      44.916
  H     -221.101     421.590      43.914
  H     -222.845     421.431      43.599
  H     -221.691     420.272      42.881
  P     -222.900     418.728      44.833
  C     -225.116     420.027      45.080
  O     -224.354     419.127      44.289
  C     -226.601     419.977      44.705
  O     -226.815     420.704      43.470
  C     -227.039     418.533      44.445
  O     -228.422     418.327      44.735
  C     -226.811     418.369      42.950
  O     -227.579     417.317      42.379
  C     -227.195     419.766      42.448
  N     -227.840     421.077      37.560
  C     -228.779     420.666      38.488
  N     -230.052     420.568      38.048
  N     -228.489     420.355      39.726
  C     -227.162     420.427      40.005
  C     -226.134     420.801      39.166
  C     -226.475     421.173      37.804
  O     -225.681     421.532      36.940
  N     -224.920     420.733      39.799
  C     -225.207     420.314      41.016
  N     -226.563     420.129      41.199
  O     -223.193     418.367      46.369
  O     -222.250     417.584      44.116
  H     -227.359     417.274      41.428
  H     -223.355     417.411      46.469
  H     -228.117     421.317      36.624
  H     -224.486     420.133      41.805
  H     -228.277     419.841      42.303
  H     -225.756     418.134      42.786
  H     -230.295     420.620      37.071
  H     -226.445     417.814      45.023
  H     -230.692     419.993      38.613
  H     -227.206     420.469      45.476
  H     -224.719     421.034      44.901
  H     -224.977     419.809      46.144
  P     -228.816     417.967      46.245
  C     -229.602     415.500      45.829
  O     -228.670     416.378      46.429
  O     -230.396     418.227      46.294
  O     -228.085     418.775      47.269
  H     -230.587     419.056      46.771
  H     -229.341     414.489      46.063
  H     -229.588     415.636      44.768
  H     -230.582     415.711      46.203

 6  7  8  9  10  11  12  13  14  15  26  29  33  34 0
 6-311+G(2d,p)
 ****
 36  38  39  40  41 0
 6-311+G(2d,p)
 ****
 1  2  3  4  5  16  17  18  19  20  21  22  23  24  25 0
 3-21G
 ****
 27  28  30  31  32  35  37  42  43  44  45  46  47 0
 3-21G
 ****
 48  49 0
 3-21G
 ****


