%nproc=1
%NoSave
%Mem=1900MB
#P OB98/GEN NMR

erre ene a

0 1
  C     -409.426     432.051    -100.733
  O     -410.432     431.112    -100.400
  P     -411.960     431.571    -100.560
  C     -413.322     433.668     -99.821
  O     -412.172     432.854     -99.624
  C     -414.247     433.546     -98.605
  O     -413.566     433.976     -97.406
  C     -415.493     434.420     -98.702
  O     -416.475     433.828     -99.539
  C     -415.919     434.509     -97.243
  O     -416.685     433.357     -96.855
  C     -414.560     434.527     -96.515
  N     -414.190     435.860     -96.048
  C     -414.976     436.388     -95.031
  O     -415.941     435.793     -94.554
  N     -414.637     437.643     -94.601
  C     -413.648     438.429     -95.123
  O     -413.430     439.569     -94.737
  C     -412.868     437.828     -96.217
  C     -413.173     436.596     -96.626
  O     -412.787     430.416     -99.821
  O     -412.408     431.757    -101.972
  H     -417.454     433.318     -97.459
  H     -413.631     430.263    -100.286
  H     -415.179     438.033     -93.850
  H     -412.073     438.422     -96.651
  H     -412.619     436.144     -97.440
  H     -414.588     433.860     -95.647
  H     -416.541     435.386     -97.049
  H     -415.224     435.422     -99.059
  H     -414.524     432.494     -98.483
  H     -413.848     433.339    -100.717
  H     -413.005     434.704     -99.962
  P     -417.669     434.779    -100.040
  C     -419.694     435.874     -98.805
  O     -418.603     434.987     -98.748
  O     -418.476     433.772    -100.986
  O     -417.184     436.018    -100.717
  H     -418.427     432.851    -100.666
  H     -420.169     435.867     -99.793
  H     -419.352     436.886     -98.577
  H     -420.432     435.573     -98.059
  H     -408.463     431.611    -100.579
  H     -409.526     432.917    -100.112
  H     -409.529     432.335    -101.760

 3  4  5  6  7  8  9  10  11  12  13  23  28  29  30  31  32 0
 6-311+G(2d,p)
 ****
 33  34 0
 6-311+G(2d,p)
 ****
 1  2  14  15  16  17  18  19  20  21  22  24  25  26 0
 3-21G
 ****
 27  35  36  37  38  39  40  41  42  43  44  45 0
 3-21G
 ****


