%nproc=1
%NoSave
%Mem=1900MB
#P OB98/GEN NMR

erre ene a

0 1
  C     -383.419     398.193     537.213
  O     -382.318     398.498     536.378
  H     -383.055     398.069     538.239
  H     -383.900     397.263     536.898
  H     -384.141     399.012     537.194
  P     -382.545     398.570     534.792
  C     -382.420     396.014     534.461
  O     -383.238     397.183     534.366
  C     -382.336     395.307     533.106
  O     -381.711     394.007     533.303
  C     -383.706     395.080     532.445
  O     -383.562     395.250     531.031
  C     -384.004     393.631     532.776
  O     -384.916     393.059     531.861
  C     -382.598     393.000     532.776
  N     -382.562     391.776     533.571
  C     -382.242     390.597     532.886
  O     -381.977     390.633     531.680
  N     -382.271     389.404     533.551
  C     -382.654     389.371     534.793
  N     -382.709     388.151     535.390
  C     -383.047     390.585     535.547
  C     -382.977     391.741     534.883
  O     -381.358     398.956     533.972
  O     -383.739     399.632     534.634
  H     -385.136     392.147     532.152
  H     -383.376     400.527     534.526
  H     -383.368     390.505     536.583
  H     -383.251     392.678     535.361
  H     -382.279     392.771     531.752
  H     -384.443     393.561     533.782
  H     -384.487     395.753     532.826
  H     -381.675     395.888     532.448
  H     -382.462     387.350     534.833
  H     -382.877     395.345     535.199
  H     -383.032     387.999     536.346
  H     -381.418     396.293     534.800
  P     -384.489     396.291     530.241
  C     -386.612     394.860     530.158
  O     -386.026     396.061     530.662
  O     -384.255     396.342     528.760
  O     -384.137     397.715     530.906
  H     -384.247     398.417     530.245
  H     -387.628     394.793     530.487
  H     -386.063     394.016     530.521
  H     -386.584     394.871     529.088

 6  7  8  9  10  11  12  13  14  15  16  26  30  31  32  33  35 0
 6-311+G(2d,p)
 ****
 37  38 0
 6-311+G(2d,p)
 ****
 1  2  3  4  5  17  18  19  20  21  22  23  24  25 0
 3-21G
 ****
 27  28  29  34  36  39  40  41  42  43  44  45  46 0
 3-21G
 ****


