%nproc=1
%NoSave
%Mem=1900MB
#P OB98/GEN NMR

erre ene a

0 1
  C      293.913     215.651     232.940
  O      293.395     215.975     231.667
  H      293.111     215.225     233.547
  H      294.283     216.554     233.431
  H      294.718     214.917     232.853
  P      294.455     216.426     230.550
  C      294.445     214.051     229.501
  O      295.217     215.093     230.081
  C      295.041     213.640     228.158
  O      294.816     214.671     227.171
  C      296.546     213.399     228.186
  O      296.864     212.097     228.661
  C      296.880     213.542     226.711
  O      296.496     212.344     226.005
  C      295.980     214.713     226.296
  N      299.878     217.587     224.801
  C      299.566     216.280     224.481
  N      300.419     215.643     223.651
  N      298.515     215.650     224.938
  C      297.757     216.406     225.765
  C      297.963     217.711     226.155
  C      299.124     218.401     225.637
  O      299.433     219.563     225.871
  N      296.972     218.145     226.997
  C      296.180     217.099     227.134
  N      296.617     216.016     226.413
  O      295.571     217.209     231.394
  O      293.911     217.277     229.454
  H      296.747     212.474     225.073
  H      295.909     217.951     230.856
  H      300.708     218.021     224.430
  H      295.284     217.075     227.737
  H      295.621     214.620     225.266
  H      297.945     213.690     226.532
  H      301.271     216.052     223.304
  H      297.066     214.178     228.756
  H      300.194     214.695     223.375
  H      294.512     212.740     227.817
  H      293.419     214.406     229.348
  H      294.429     213.198     230.184
  P      298.291     211.894     229.374
  C      297.392     213.289     231.371
  O      298.429     213.107     230.415
  O      299.329     212.280     228.218
  O      298.534     210.529     229.918
  H      300.194     211.860     228.391
  H      297.622     214.130     231.991
  H      297.308     212.411     231.977
  H      296.466     213.463     230.864

 6  7  8  9  10  11  12  13  14  15  26  29  33  34 0
 6-311+G(2d,p)
 ****
 36  38  39  40  41 0
 6-311+G(2d,p)
 ****
 1  2  3  4  5  16  17  18  19  20  21  22  23  24  25 0
 3-21G
 ****
 27  28  30  31  32  35  37  42  43  44  45  46  47 0
 3-21G
 ****
 48  49 0
 3-21G
 ****


