%nproc=1
%NoSave
%Mem=1900MB
#P OB98/GEN NMR

erre ene a

0 1
  C     -222.786      59.523     340.934
  O     -222.600      60.186     339.696
  H     -221.806      59.276     341.353
  H     -223.346      58.593     340.797
  H     -223.316      60.171     341.636
  P     -223.894      60.512     338.810
  C     -223.438      63.059     338.875
  O     -224.327      62.000     339.215
  C     -222.836      63.662     340.141
  O     -222.141      62.652     340.897
  C     -221.809      64.749     339.856
  O     -222.439      65.954     339.473
  C     -221.064      64.790     341.177
  O     -221.784      65.546     342.159
  C     -221.024      63.291     341.555
  N     -219.763      62.650     341.191
  C     -218.774      62.636     342.182
  O     -218.987      63.138     343.283
  N     -217.559      62.071     341.880
  C     -217.355      61.554     340.711
  N     -216.130      61.011     340.478
  C     -218.375      61.536     339.645
  C     -219.543      62.101     339.949
  O     -225.009      59.512     338.849
  O     -223.301      60.695     337.333
  H     -222.665      65.125     342.226
  H     -223.290      59.842     336.862
  H     -218.163      61.089     338.685
  H     -220.349      62.128     339.224
  H     -221.175      63.163     342.636
  H     -220.080      65.243     341.068
  H     -221.109      64.413     339.083
  H     -223.655      64.046     340.763
  H     -215.456      61.055     341.236
  H     -224.021      63.812     338.336
  H     -215.886      60.504     339.641
  H     -222.643      62.697     338.214
  P     -222.441      66.422     337.938
  C     -224.951      67.014     337.944
  O     -223.937      66.162     337.414
  O     -221.358      65.842     337.094
  O     -222.375      68.019     338.049
  H     -221.471      68.326     338.309
  H     -225.898      66.746     337.523
  H     -224.727      68.031     337.698
  H     -224.989      66.904     339.008

 6  7  8  9  10  11  12  13  14  15  16  26  30  31  32  33  35 0
 6-311+G(2d,p)
 ****
 37  38 0
 6-311+G(2d,p)
 ****
 1  2  3  4  5  17  18  19  20  21  22  23  24  25 0
 3-21G
 ****
 27  28  29  34  36  39  40  41  42  43  44  45  46 0
 3-21G
 ****


