%nproc=1
%NoSave
%Mem=1900MB
#P OB98/GEN NMR

erre ene a

0 1
  C     -148.235     -31.918    -180.606
  O     -149.448     -31.568    -181.240
  H     -148.428     -32.734    -179.905
  H     -147.848     -31.061    -180.049
  H     -147.500     -32.248    -181.342
  P     -149.372     -30.442    -182.380
  C     -150.626     -30.215    -184.639
  O     -150.694     -30.617    -183.278
  C     -151.800     -30.786    -185.429
  O     -151.691     -32.241    -185.452
  C     -153.181     -30.439    -184.851
  O     -154.092     -30.273    -185.945
  C     -153.565     -31.708    -184.106
  O     -154.970     -31.821    -183.903
  C     -152.971     -32.760    -185.042
  N     -155.555     -36.408    -182.736
  C     -155.990     -35.240    -183.331
  N     -157.319     -35.002    -183.309
  N     -155.190     -34.376    -183.897
  C     -153.890     -34.757    -183.877
  C     -153.332     -35.881    -183.317
  C     -154.226     -36.816    -182.667
  O     -153.899     -37.857    -182.107
  N     -151.968     -35.888    -183.480
  C     -151.706     -34.773    -184.136
  N     -152.839     -34.052    -184.398
  O     -148.200     -30.981    -183.326
  O     -149.108     -29.056    -181.895
  H     -155.213     -31.248    -183.147
  H     -147.346     -30.586    -183.065
  H     -156.212     -37.032    -182.301
  H     -150.722     -34.441    -184.439
  H     -153.583     -32.913    -185.939
  H     -153.073     -31.734    -183.126
  H     -157.999     -35.644    -182.932
  H     -153.194     -29.547    -184.217
  H     -157.661     -34.172    -183.778
  H     -151.717     -30.449    -186.470
  H     -149.689     -30.583    -185.071
  H     -150.636     -29.121    -184.692
  P     -154.234     -28.814    -186.590
  C     -154.383     -28.109    -189.090
  O     -154.841     -28.978    -188.064
  O     -152.712     -28.402    -186.879
  O     -154.917     -27.818    -185.713
  H     -152.621     -27.432    -186.853
  H     -154.881     -28.346    -190.007
  H     -153.327     -28.231    -189.216
  H     -154.595     -27.096    -188.820

 6  7  8  9  10  11  12  13  14  15  26  29  33  34 0
 6-311+G(2d,p)
 ****
 36  38  39  40  41 0
 6-311+G(2d,p)
 ****
 1  2  3  4  5  16  17  18  19  20  21  22  23  24  25 0
 3-21G
 ****
 27  28  30  31  32  35  37  42  43  44  45  46  47 0
 3-21G
 ****
 48  49 0
 3-21G
 ****


