%nproc=1
%NoSave
%Mem=1900MB
#P OB98/GEN NMR

erre ene a

0 1
  C      495.558    -147.407      26.435
  O      496.327    -147.243      25.253
  P      497.716    -148.045      25.156
  C      498.396    -146.474      23.208
  O      498.751    -147.029      24.465
  C      498.644    -144.965      23.198
  O      497.811    -144.328      24.179
  C      500.067    -144.558      23.542
  O      500.939    -144.679      22.432
  C      499.868    -143.097      23.930
  O      499.826    -142.285      22.744
  C      498.493    -143.127      24.619
  N      497.189    -140.708      28.876
  C      496.911    -140.392      27.558
  N      496.156    -139.292      27.344
  N      497.336    -141.094      26.537
  C      498.045    -142.186      26.902
  C      498.385    -142.607      28.171
  C      497.950    -141.790      29.287
  O      498.223    -141.984      30.472
  N      499.104    -143.774      28.140
  C      499.161    -144.093      26.862
  N      498.562    -143.138      26.062
  O      497.438    -149.124      24.004
  O      498.166    -148.694      26.423
  H      499.540    -141.395      23.018
  H      498.023    -149.897      24.121
  H      496.816    -140.146      29.621
  H      499.628    -144.979      26.463
  H      497.878    -142.276      24.305
  H      500.679    -142.711      24.558
  H      495.687    -138.793      28.090
  H      500.440    -145.122      24.410
  H      495.909    -139.070      26.388
  H      498.364    -144.578      22.204
  H      497.331    -146.656      23.014
  H      498.982    -146.963      22.423
  P      501.700    -146.089      22.262
  C      503.462    -144.626      21.024
  O      503.217    -145.709      21.907
  O      501.110    -146.661      20.887
  O      501.506    -147.035      23.404
  H      501.171    -147.637      20.880
  H      502.735    -143.821      21.173
  H      503.405    -144.982      19.995
  H      504.464    -144.233      21.220
  H      494.666    -146.820      26.364
  H      496.130    -147.086      27.280
  H      495.298    -148.438      26.551

 3  4  5  6  7  8  9  10  11  12  23  26  30  31  33  0
 6-311+G(2d,p)
 ****
 35  36  37  38 0
 6-311+G(2d,p)
 ****
 1  2  13  14  15  16  17  18  19  20  21  22  24  25  27  28  29 0
 3-21G
 ****
 32  34  39  40  41  42  43  44  45  46  47  48  49 0
 3-21G
 ****


