%nproc=1
%NoSave
%Mem=1900MB
#P OB98/GEN NMR

erre ene a

0 1
  C       17.672     -38.122     -25.507
  O       16.669     -38.355     -26.474
  H       17.605     -38.896     -24.737
  H       17.522     -37.146     -25.038
  H       18.662     -38.166     -25.967
  P       16.622     -37.348     -27.721
  C       18.106     -36.983     -29.825
  O       17.978     -37.590     -28.546
  C       19.498     -36.375     -29.971
  O       19.613     -35.224     -29.105
  C       20.634     -37.308     -29.565
  O       20.937     -38.247     -30.581
  C       21.756     -36.312     -29.304
  O       22.421     -35.938     -30.516
  C       21.003     -35.106     -28.727
  N       23.968     -33.505     -24.904
  C       24.079     -33.385     -26.245
  N       23.231     -33.826     -27.199
  C       22.174     -34.439     -26.642
  C       21.928     -34.643     -25.295
  C       22.885     -34.140     -24.399
  N       22.790     -34.294     -23.037
  N       20.758     -35.355     -25.119
  C       20.301     -35.568     -26.336
  N       21.121     -35.028     -27.285
  O       16.847     -35.918     -27.034
  O       15.369     -37.391     -28.529
  H       21.858     -35.267     -30.948
  H       15.983     -35.500     -26.860
  H       24.968     -32.870     -26.598
  H       19.395     -36.110     -26.578
  H       21.369     -34.157     -29.134
  H       22.510     -36.730     -28.635
  H       20.388     -37.818     -28.626
  H       19.625     -36.036     -31.007
  H       17.356     -36.191     -29.927
  H       17.933     -37.740     -30.596
  H       23.526     -33.928     -22.455
  H       22.042     -34.858     -22.657
  P       21.740     -39.573     -30.181
  C       21.094     -41.807     -29.019
  O       20.806     -40.430     -29.198
  O       22.899     -39.026     -29.223
  O       22.288     -40.342     -31.336
  H       23.739     -38.952     -29.712
  H       20.386     -42.234     -28.339
  H       22.081     -41.916     -28.621
  H       21.032     -42.310     -29.961

 6  7  8  9  10  11  12  13  14  15  25  28  32  33  34  35 0
 6-311+G(2d,p)
 ****
 36  37  40 0
 6-311+G(2d,p)
 ****
 1  2  3  4  5  16  17  18  19  20  21  22  23  24 0
 3-21G
 ****
 26  27  29  30  31  38  39 41  42  43  44  45  46  47  48 0
 3-21G
 ****


