%nproc=1
%NoSave
%Mem=1900MB
#P OB98/GEN NMR

erre ene a

0 1
  C      -77.643     310.753     -87.972
  O      -78.841     310.198     -88.481
  H      -76.796     310.212     -88.400
  H      -77.613     310.652     -86.884
  H      -77.566     311.808     -88.250
  P      -80.211     310.870     -87.987
  C      -80.924     308.752     -86.660
  O      -80.608     310.137     -86.616
  C      -81.621     308.343     -85.365
  O      -80.671     308.364     -84.272
  C      -82.741     309.285     -84.945
  O      -83.937     309.060     -85.673
  C      -82.864     308.954     -83.464
  O      -83.677     307.795     -83.253
  C      -81.412     308.666     -83.067
  N      -79.532     310.256     -78.596
  C      -79.991     309.055     -79.004
  N      -80.464     308.708     -80.220
  C      -80.406     309.750     -81.065
  C      -79.960     311.032     -80.792
  C      -79.504     311.273     -79.487
  N      -79.059     312.505     -79.060
  N      -80.093     311.841     -81.905
  C      -80.602     311.058     -82.837
  N      -80.804     309.787     -82.376
  O      -81.284     310.319     -89.040
  O      -80.200     312.361     -87.933
  H      -83.755     307.687     -82.285
  H      -81.461     311.002     -89.713
  H      -79.988     308.267     -78.255
  H      -80.845     311.365     -83.845
  H      -81.328     307.793     -82.410
  H      -83.314     309.780     -82.918
  H      -82.418     310.327     -85.047
  H      -81.993     307.317     -85.475
  H      -80.002     308.171     -86.772
  H      -81.573     308.562     -87.522
  H      -78.812     312.623     -78.093
  H      -79.142     313.297     -79.685
  P      -85.209     309.967     -85.311
  C      -86.536     307.748     -84.976
  O      -86.230     309.046     -84.488
  O      -85.939     310.179     -86.720
  O      -84.878     311.265     -84.654
  H      -86.332     311.074     -86.757
  H      -87.227     307.271     -84.313
  H      -85.639     307.168     -85.033
  H      -86.972     307.827     -85.950

 6  7  8  9  10  11  12  13  14  15  25  28  32  33  34  35 0
 6-311+G(2d,p)
 ****
 36  37  40 0
 6-311+G(2d,p)
 ****
 1  2  3  4  5  16  17  18  19  20  21  22  23  24 0
 3-21G
 ****
 26  27  29  30  31  38  39 41  42  43  44  45  46  47  48 0
 3-21G
 ****


