%nproc=1
%NoSave
%Mem=1900MB
#P OB98/GEN NMR

erre ene a

0 1
  C       -3.017      38.606      19.746
  O       -4.184      37.803      19.799
  P       -4.677      37.114      18.434
  C       -6.727      38.703      18.307
  O       -6.259      37.362      18.328
  C       -8.102      38.811      18.970
  O       -8.456      40.218      19.090
  C       -9.237      38.116      18.200
  O      -10.143      37.600      19.181
  C       -9.855      39.273      17.435
  O      -11.155      39.006      16.937
  C       -9.758      40.377      18.483
  N      -12.823      43.468      15.804
  C      -12.996      42.209      16.267
  N      -12.137      41.452      16.981
  C      -10.999      42.125      17.220
  C      -10.672      43.402      16.798
  C      -11.648      44.088      16.056
  N      -11.465      45.370      15.577
  N       -9.402      43.747      17.212
  C       -8.967      42.694      17.872
  N       -9.904      41.699      17.921
  O       -4.572      35.553      18.760
  O       -3.888      37.488      17.218
  H      -11.590      39.842      16.675
  H       -4.252      35.051      17.987
  H      -13.952      41.749      16.032
  H       -7.987      42.597      18.318
  H      -10.511      40.261      19.272
  H       -9.223      39.505      16.570
  H       -8.891      37.296      17.565
  H       -8.029      38.405      19.986
  H       -6.819      39.039      17.270
  H      -12.135      45.692      14.894
  H      -10.521      45.736      15.591
  H       -5.998      39.350      18.807
  P      -11.016      36.301      18.823
  C      -13.044      37.877      18.911
  O      -12.484      36.660      19.367
  O      -10.503      35.274      19.938
  O      -10.905      35.807      17.422
  H      -10.535      35.665      20.829
  H      -14.072      37.946      19.276
  H      -13.052      37.905      17.817
  H      -12.471      38.721      19.304
  H       -2.809      38.997      20.720
  H       -3.171      39.415      19.062
  H       -2.190      38.012      19.416

 3  4  5  6  7  8  9  10  11  12  22  25  29  30  31  32 0
 6-311+G(2d,p)
 ****
 33  36  37 0
 6-311+G(2d,p)
 ****
 1  2  13  14  15  16  17  18  19  20  21  23  24  26 0
 3-21G
 ****
 27  28  34  35  38  39  40  41  42  43  44  45  46  47  48 0
 3-21G
 ****


