%nproc=1
%NoSave
%Mem=1900MB
#P OB98/GEN NMR

erre ene a

0 1
  C      -77.401      75.377     -76.966
  O      -76.331      75.169     -77.875
  P      -75.017      76.072     -77.700
  C      -74.141      74.793     -75.631
  O      -74.634      76.024     -76.142
  C      -73.068      75.033     -74.575
  O      -72.723      73.763     -73.958
  C      -71.770      75.648     -75.123
  O      -71.320      76.674     -74.229
  C      -70.776      74.502     -75.046
  O      -69.434      74.966     -74.947
  C      -71.290      73.771     -73.807
  N      -67.182      71.017     -72.788
  C      -67.401      72.370     -72.622
  N      -66.354      73.098     -72.173
  N      -68.539      72.959     -72.875
  C      -69.506      72.103     -73.287
  C      -69.414      70.744     -73.482
  C      -68.130      70.116     -73.255
  O      -67.848      68.939     -73.470
  N      -70.612      70.216     -73.889
  C      -71.427      71.252     -73.945
  N      -70.789      72.427     -73.636
  O      -75.576      77.557     -77.909
  O      -73.909      75.774     -78.649
  H      -69.383      75.526     -74.150
  H      -75.082      77.998     -78.627
  H      -66.280      70.618     -72.595
  H      -72.469      71.205     -74.234
  H      -71.045      74.337     -72.899
  H      -70.867      73.886     -75.947
  H      -65.462      72.703     -71.925
  H      -71.857      76.053     -76.136
  H      -66.502      74.088     -72.023
  H      -73.492      75.666     -73.786
  H      -73.712      74.209     -76.452
  H      -74.975      74.230     -75.198
  P      -70.769      78.016     -74.919
  C      -73.158      79.050     -74.831
  O      -72.037      78.697     -75.619
  O      -69.902      77.471     -76.147
  O      -69.979      78.889     -74.002
  H      -69.225      78.125     -76.402
  H      -72.956      78.955     -73.760
  H      -73.995      78.399     -75.091
  H      -73.431      80.086     -75.047
  H      -78.204      74.710     -77.201
  H      -77.743      76.388     -77.043
  H      -77.063      75.190     -75.968

 3  4  5  6  7  8  9  10  11  12  23  26  30  31  33  0
 6-311+G(2d,p)
 ****
 35  36  37  38 0
 6-311+G(2d,p)
 ****
 1  2  13  14  15  16  17  18  19  20  21  22  24  25  27  28  29 0
 3-21G
 ****
 32  34  39  40  41  42  43  44  45  46  47  48  49 0
 3-21G
 ****


