%nproc=1
%NoSave
%Mem=1900MB
#P OB98/GEN NMR

erre ene a

0 1
  C      528.641    -209.425     416.796
  O      530.060    -209.563     416.817
  P      530.786    -209.772     418.233
  C      531.057    -212.303     418.648
  O      530.259    -211.145     418.880
  C      530.537    -213.491     419.487
  O      529.144    -213.728     419.161
  C      531.252    -214.822     419.241
  O      532.414    -215.119     420.013
  C      530.184    -215.824     419.653
  O      530.211    -216.000     421.090
  C      528.878    -215.143     419.251
  N      525.965    -218.739     417.047
  C      526.303    -218.506     418.336
  N      527.077    -217.523     418.840
  C      527.530    -216.722     417.863
  C      527.268    -216.831     416.505
  C      526.452    -217.898     416.095
  N      526.120    -218.140     414.783
  N      527.909    -215.825     415.804
  C      528.554    -215.137     416.727
  N      528.347    -215.634     417.985
  O      530.786    -208.590     419.146
  O      532.283    -210.154     417.801
  H      530.053    -215.114     421.476
  H      532.909    -209.752     418.434
  H      525.885    -219.206     419.062
  H      529.190    -214.280     416.525
  H      528.087    -215.279     420.000
  H      530.341    -216.813     419.217
  H      531.481    -214.941     418.172
  H      530.600    -213.226     420.552
  H      532.091    -212.094     418.907
  H      525.563    -218.951     414.572
  H      526.520    -217.559     414.056
  H      531.026    -212.515     417.574
  P      533.839    -215.379     419.321
  C      534.970    -213.447     420.674
  O      534.627    -213.987     419.420
  O      533.781    -215.964     417.952
  O      534.589    -216.293     420.403
  H      534.816    -215.833     421.231
  H      535.678    -212.624     420.523
  H      535.438    -214.197     421.313
  H      534.077    -213.053     421.165
  H      528.310    -209.294     415.787
  H      528.357    -208.573     417.378
  H      528.191    -210.304     417.207

 3  4  5  6  7  8  9  10  11  12  22  25  29  30  31  32 0
 6-311+G(2d,p)
 ****
 33  36  37 0
 6-311+G(2d,p)
 ****
 1  2  13  14  15  16  17  18  19  20  21  23  24  26 0
 3-21G
 ****
 27  28  34  35  38  39  40  41  42  43  44  45  46  47  48 0
 3-21G
 ****


