%nproc=1
%NoSave
%Mem=1900MB
#P OB98/GEN NMR

erre ene a

0 1
  C      -77.219     164.160    -231.473
  O      -78.146     165.209    -231.272
  H      -77.100     163.612    -230.535
  H      -76.250     164.573    -231.764
  H      -77.577     163.470    -232.242
  P      -78.619     166.011    -232.579
  C      -76.724     167.733    -233.013
  O      -77.283     166.469    -233.341
  C      -76.098     168.372    -234.249
  O      -74.926     167.632    -234.659
  C      -77.018     168.417    -235.464
  O      -77.905     169.528    -235.414
  C      -76.000     168.582    -236.579
  O      -75.538     169.949    -236.620
  C      -74.870     167.654    -236.113
  N      -74.937     164.746    -240.267
  C      -74.828     166.120    -240.144
  N      -74.732     166.820    -241.296
  N      -74.816     166.752    -239.000
  C      -74.933     165.925    -237.932
  C      -75.047     164.551    -237.925
  C      -75.047     163.865    -239.198
  O      -75.117     162.650    -239.361
  N      -75.130     164.061    -236.649
  C      -75.091     165.138    -235.886
  N      -74.976     166.294    -236.616
  O      -79.191     167.386    -231.982
  O      -79.638     165.320    -233.420
  H      -76.320     170.506    -236.779
  H      -79.955     167.669    -232.521
  H      -74.952     164.313    -241.173
  H      -75.136     165.132    -234.805
  H      -73.880     168.026    -236.397
  H      -76.411     168.355    -237.563
  H      -74.784     166.401    -242.211
  H      -77.556     167.473    -235.598
  H      -74.618     167.825    -241.233
  H      -75.767     169.385    -233.975
  H      -75.954     167.597    -232.247
  H      -77.513     168.378    -232.614
  P      -79.474     169.234    -235.598
  C      -79.104     169.733    -238.119
  O      -79.666     168.860    -237.146
  O      -80.131     170.692    -235.487
  O      -80.058     168.279    -234.612
  H      -81.067     170.617    -235.219
  H      -79.312     169.356    -239.099
  H      -78.045     169.791    -237.977
  H      -79.532     170.708    -238.013

 6  7  8  9  10  11  12  13  14  15  26  29  33  34 0
 6-311+G(2d,p)
 ****
 36  38  39  40  41 0
 6-311+G(2d,p)
 ****
 1  2  3  4  5  16  17  18  19  20  21  22  23  24  25 0
 3-21G
 ****
 27  28  30  31  32  35  37  42  43  44  45  46  47 0
 3-21G
 ****
 48  49 0
 3-21G
 ****


