%nproc=1
%NoSave
%Mem=1900MB
#P OB98/GEN NMR

erre ene a

0 1
  C      296.091     -64.425    -238.465
  O      294.680     -64.421    -238.573
  P      293.877     -65.590    -237.816
  C      292.544     -65.977    -240.018
  O      293.320     -66.551    -238.969
  C      292.842     -66.673    -241.345
  O      294.243     -66.988    -241.433
  C      292.114     -67.994    -241.524
  O      290.760     -67.774    -241.879
  C      292.941     -68.647    -242.622
  O      292.490     -68.235    -243.924
  C      294.363     -68.112    -242.337
  N      295.248     -69.133    -241.801
  C      295.940     -69.898    -242.749
  O      295.762     -69.700    -243.951
  N      296.777     -70.895    -242.309
  C      296.909     -71.103    -241.036
  N      297.756     -72.099    -240.654
  C      296.184     -70.335    -240.008
  C      295.372     -69.374    -240.455
  O      292.568     -64.847    -237.284
  O      294.639     -66.260    -236.724
  H      292.439     -67.257    -243.887
  H      292.212     -65.294    -236.493
  H      296.332     -70.547    -238.956
  H      294.804     -68.760    -239.768
  H      294.816     -67.717    -243.256
  H      292.871     -69.738    -242.591
  H      292.172     -68.598    -240.610
  H      292.594     -65.981    -242.157
  H      298.231     -72.613    -241.385
  H      292.797     -64.917    -240.113
  H      297.945     -72.326    -239.688
  H      291.484     -66.061    -239.761
  P      289.649     -68.003    -240.752
  C      288.957     -70.089    -242.076
  O      289.322     -69.569    -240.811
  O      288.344     -67.361    -241.428
  O      289.918     -67.429    -239.400
  H      287.608     -67.352    -240.787
  H      288.915     -71.174    -242.013
  H      289.695     -69.805    -242.831
  H      287.967     -69.713    -242.362
  H      296.493     -63.598    -239.013
  H      296.477     -65.339    -238.865
  H      296.370     -64.340    -237.436

 3  4  5  6  7  8  9  10  11  12  13  21  23  27  28  29  30  32 0
 6-311+G(2d,p)
 ****
 34  35 0
 6-311+G(2d,p)
 ****
 1  2  14  15  16  17  18  19  20  22  24  25  26 0
 3-21G
 ****
 31  33  36  37  38  39  40  41  42  43  44  45  46 0
 3-21G
 ****


