%nproc=1
%NoSave
%Mem=1900MB
#P OB98/GEN NMR

erre ene a

0 1
  C     -157.069     546.522     -80.684
  O     -156.305     546.735     -79.489
  P     -155.681     545.437     -78.792
  C     -156.970     545.209     -76.552
  O     -155.773     545.630     -77.197
  C     -156.957     545.635     -75.075
  O     -157.269     547.028     -74.914
  C     -157.976     544.880     -74.225
  O     -157.455     543.599     -73.886
  C     -158.115     545.796     -73.022
  O     -157.064     545.574     -72.049
  C     -157.971     547.197     -73.640
  N     -161.374     550.389     -71.657
  C     -160.273     549.770     -71.070
  N     -160.042     550.076     -69.767
  N     -159.481     548.946     -71.682
  C     -159.835     548.742     -72.992
  C     -160.877     549.320     -73.691
  C     -161.749     550.232     -72.985
  O     -162.700     550.816     -73.462
  N     -160.879     548.919     -75.006
  C     -159.918     548.006     -75.060
  N     -159.219     547.910     -73.876
  O     -154.115     545.553     -79.107
  O     -156.259     544.154     -79.311
  H     -157.247     546.088     -71.247
  H     -153.859     544.854     -79.746
  H     -161.949     551.018     -71.125
  H     -159.670     547.417     -75.925
  H     -157.349     547.855     -73.032
  H     -159.054     545.645     -72.494
  H     -160.619     550.710     -69.220
  H     -158.934     544.784     -74.759
  H     -159.247     549.641     -69.321
  H     -155.938     545.454     -74.699
  H     -157.065     544.120     -76.612
  H     -157.832     545.629     -77.079
  P     -158.399     542.315     -74.115
  C     -156.917     540.813     -72.600
  O     -157.527     541.018     -73.877
  O     -158.651     542.326     -75.699
  O     -159.695     542.376     -73.369
  H     -159.593     542.171     -75.893
  H     -156.825     539.755     -72.408
  H     -157.501     541.282     -71.807
  H     -155.911     541.257     -72.612
  H     -157.429     547.461     -81.050
  H     -157.899     545.882     -80.468
  H     -156.450     546.064     -81.426

 3  4  5  6  7  8  9  10  11  12  23  26  30  31 0
 6-311+G(2d,p)
 ****
 33  35  36  37  38 0
 6-311+G(2d,p)
 ****
 1  2  13  14  15  16  17  18  19  20  21  22  24  25 0
 3-21G
 ****
 27  28  29  32  34  39  40  41  42  43  44  45  46  47  48  49 0
 3-21G
 ****


