%nproc=1
%NoSave
%Mem=1900MB
#P OB98/GEN NMR

erre ene a

0 1
  C      -46.341      90.369    -150.271
  O      -46.011      91.743    -150.203
  H      -47.395      90.273    -150.541
  H      -46.187      89.907    -149.292
  H      -45.733      89.859    -151.025
  P      -44.455      92.118    -150.125
  C      -43.826      92.314    -152.633
  O      -44.118      93.002    -151.426
  C      -44.302      93.127    -153.839
  O      -45.667      93.567    -153.592
  C      -43.456      94.378    -154.118
  O      -43.332      94.544    -155.535
  C      -44.290      95.508    -153.541
  O      -44.013      96.765    -154.156
  C      -45.706      94.992    -153.786
  N      -49.555      98.237    -153.510
  C      -48.867      97.760    -154.611
  N      -49.257      98.224    -155.819
  N      -47.880      96.904    -154.530
  C      -47.624      96.502    -153.259
  C      -48.228      96.904    -152.092
  C      -49.301      97.873    -152.191
  O      -49.931      98.352    -151.254
  N      -47.661      96.291    -151.000
  C      -46.714      95.523    -151.511
  N      -46.658      95.610    -152.875
  O      -43.728      90.721    -150.422
  O      -44.000      92.705    -148.829
  H      -43.036      96.877    -154.170
  H      -43.226      90.436    -149.636
  H      -50.297      98.907    -153.628
  H      -46.043      94.895    -150.941
  H      -46.055      95.193    -154.805
  H      -44.088      95.603    -152.467
  H      -50.038      98.843    -155.958
  H      -42.460      94.330    -153.672
  H      -48.790      97.855    -156.644
  H      -44.335      92.468    -154.716
  H      -44.334      91.345    -152.621
  H      -42.744      92.148    -152.704
  P      -42.029      93.917    -156.232
  C      -42.489      91.427    -156.789
  O      -42.502      92.771    -157.255
  O      -41.339      93.100    -155.041
  O      -41.098      94.939    -156.806
  H      -40.529      93.563    -154.747
  H      -42.825      90.776    -157.569
  H      -43.139      91.336    -155.944
  H      -41.493      91.158    -156.504

 6  7  8  9  10  11  12  13  14  15  26  29  33  34 0
 6-311+G(2d,p)
 ****
 36  38  39  40  41 0
 6-311+G(2d,p)
 ****
 1  2  3  4  5  16  17  18  19  20  21  22  23  24  25 0
 3-21G
 ****
 27  28  30  31  32  35  37  42  43  44  45  46  47 0
 3-21G
 ****
 48  49 0
 3-21G
 ****


