%nproc=1
%NoSave
%Mem=1900MB
#P OB98/GEN NMR

erre ene a

0 1
  C     -556.353    -221.050    -369.138
  O     -557.530    -221.826    -369.240
  H     -556.611    -220.073    -368.719
  H     -555.917    -220.903    -370.130
  H     -555.626    -221.543    -368.482
  P     -557.351    -223.361    -369.672
  C     -558.983    -222.732    -371.637
  O     -558.547    -223.707    -370.695
  C     -559.394    -223.417    -372.940
  O     -558.313    -224.178    -373.495
  C     -560.511    -224.439    -372.779
  O     -561.767    -223.836    -372.527
  C     -560.433    -225.145    -374.118
  O     -561.068    -224.385    -375.153
  C     -558.892    -225.207    -374.345
  N     -558.343    -226.526    -374.080
  C     -558.182    -227.352    -375.199
  O     -558.488    -226.953    -376.317
  N     -557.700    -228.631    -375.000
  C     -557.386    -229.026    -373.808
  N     -556.920    -230.302    -373.688
  C     -557.513    -228.175    -372.605
  C     -558.007    -226.954    -372.820
  O     -557.780    -224.149    -368.354
  O     -556.005    -223.715    -370.197
  H     -560.848    -224.831    -375.997
  H     -558.651    -223.895    -368.008
  H     -557.235    -228.547    -371.628
  H     -558.136    -226.271    -371.988
  H     -558.653    -224.931    -375.385
  H     -560.924    -226.123    -374.094
  H     -560.254    -225.160    -371.995
  H     -559.662    -222.636    -373.665
  H     -556.865    -230.861    -374.531
  H     -558.205    -221.986    -371.819
  H     -556.686    -230.735    -372.805
  H     -559.846    -222.211    -371.197
  P     -562.252    -223.573    -371.015
  C     -564.342    -225.090    -371.066
  O     -563.850    -223.749    -371.020
  O     -561.764    -222.302    -370.399
  O     -561.778    -224.891    -370.242
  H     -562.147    -225.732    -370.582
  H     -565.412    -225.078    -371.065
  H     -563.991    -225.628    -370.211
  H     -563.992    -225.568    -371.957

 6  7  8  9  10  11  12  13  14  15  16  26  30  31  32  33  35 0
 6-311+G(2d,p)
 ****
 37  38 0
 6-311+G(2d,p)
 ****
 1  2  3  4  5  17  18  19  20  21  22  23  24  25 0
 3-21G
 ****
 27  28  29  34  36  39  40  41  42  43  44  45  46 0
 3-21G
 ****


