%nproc=1
%NoSave
%Mem=1900MB
#P OB98/GEN NMR

erre ene a

0 1
  C      -84.629     877.032    -287.856
  O      -85.077     875.785    -287.370
  H      -83.535     877.019    -287.890
  H      -84.940     877.837    -287.184
  H      -85.008     877.213    -288.859
  P      -86.650     875.537    -287.172
  C      -86.319     873.593    -288.817
  O      -87.117     874.726    -288.484
  C      -87.194     872.436    -289.306
  O      -87.896     871.846    -288.181
  C      -88.250     872.849    -290.341
  O      -88.243     871.932    -291.436
  C      -89.563     872.725    -289.581
  O      -90.686     872.518    -290.435
  C      -89.235     871.575    -288.626
  N      -90.187     871.483    -287.529
  C      -91.430     870.914    -287.834
  O      -91.669     870.519    -288.977
  N      -92.387     870.862    -286.855
  C      -92.146     871.372    -285.682
  N      -93.155     871.309    -284.772
  C      -90.864     872.000    -285.325
  C      -89.934     872.015    -286.287
  O      -87.440     876.766    -286.876
  O      -86.746     874.432    -286.016
  H      -90.926     873.379    -290.847
  H      -87.641     874.482    -285.603
  H      -90.706     872.421    -284.347
  H      -88.956     872.456    -286.118
  H      -89.226     870.608    -289.162
  H      -89.746     873.640    -289.006
  H      -88.103     873.858    -290.720
  H      -86.539     871.648    -289.697
  H      -94.019     870.876    -285.060
  H      -85.746     873.292    -287.939
  H      -93.086     871.690    -283.839
  H      -85.631     873.880    -289.622
  P      -87.072     872.129    -292.514
  C      -86.457     869.650    -292.055
  O      -85.986     870.965    -292.291
  O      -86.329     873.461    -292.014
  O      -87.574     872.265    -293.923
  H      -86.510     874.186    -292.649
  H      -85.624     868.991    -291.927
  H      -87.043     869.326    -292.889
  H      -87.059     869.640    -291.171

 6  7  8  9  10  11  12  13  14  15  16  26  30  31  32  33  35 0
 6-311+G(2d,p)
 ****
 37  38 0
 6-311+G(2d,p)
 ****
 1  2  3  4  5  17  18  19  20  21  22  23  24  25 0
 3-21G
 ****
 27  28  29  34  36  39  40  41  42  43  44  45  46 0
 3-21G
 ****


