%nproc=1
%NoSave
%Mem=1900MB
#P OB98/GEN NMR

erre ene a

0 1
  C       22.644      -9.229      98.288
  O       22.168      -8.973      99.609
  P       21.386      -7.604      99.896
  C       21.940      -5.097     100.110
  O       22.440      -6.397      99.817
  C       23.044      -4.207     100.683
  O       23.405      -4.601     102.021
  C       24.335      -4.263      99.883
  O       24.214      -3.539      98.672
  C       25.331      -3.693     100.884
  O       25.298      -2.257     100.882
  C       24.787      -4.232     102.226
  N       25.564      -5.342     102.756
  C       26.283      -5.085     103.928
  O       26.270      -3.961     104.429
  N       27.012      -6.104     104.490
  C       27.026      -7.273     103.927
  N       27.762      -8.245     104.529
  C       26.290      -7.582     102.685
  C       25.594      -6.579     102.155
  O       20.505      -7.603     101.102
  O       20.526      -7.400      98.555
  H       25.615      -1.982      99.998
  H       19.705      -6.919      98.777
  H       26.329      -8.574     102.258
  H       25.027      -6.718     101.241
  H       24.785      -3.435     102.982
  H       26.357      -3.993     100.652
  H       24.590      -5.309      99.665
  H       22.670      -3.175     100.713
  H       28.266      -8.004     105.373
  H       21.117      -5.176     100.825
  H       27.795      -9.198     104.196
  H       21.521      -4.666      99.194
  P       23.823      -4.359      97.351
  C       24.956      -6.149      95.858
  O       25.100      -5.217      96.912
  O       23.742      -3.215      96.230
  O       22.537      -5.117      97.440
  H       23.051      -3.441      95.582
  H       25.951      -6.406      95.480
  H       24.366      -5.735      95.037
  H       24.477      -7.057      96.232
  H       23.140     -10.177      98.265
  H       23.331      -8.460      98.001
  H       21.818      -9.242      97.608

 3  4  5  6  7  8  9  10  11  12  13  23  27  28  29  30  32 0
 6-311+G(2d,p)
 ****
 34  35 0
 6-311+G(2d,p)
 ****
 1  2  14  15  16  17  18  19  20  21  22  24  25  26 0
 3-21G
 ****
 31  33  36  37  38  39  40  41  42  43  44  45  46 0
 3-21G
 ****


