%nproc=1
%NoSave
%Mem=1900MB
#P OB98/GEN NMR

erre ene a

0 1
  C     -130.168      44.665    -179.620
  O     -130.253      46.074    -179.703
  H     -131.162      44.243    -179.792
  H     -129.828      44.370    -178.623
  H     -129.481      44.278    -180.377
  P     -128.875      46.887    -179.651
  C     -130.222      49.137    -179.822
  O     -129.219      48.377    -179.156
  C     -130.409      50.480    -179.121
  O     -131.012      50.314    -177.822
  C     -129.108      51.207    -178.826
  O     -128.494      51.722    -179.986
  C     -129.602      52.274    -177.861
  O     -130.228      53.356    -178.563
  C     -130.645      51.480    -177.036
  N     -130.147      51.109    -175.719
  C     -130.629      51.870    -174.647
  O     -131.431      52.782    -174.845
  N     -130.166      51.594    -173.384
  C     -129.319      50.631    -173.201
  N     -128.893      50.416    -171.929
  C     -128.805      49.787    -174.298
  C     -129.252      50.082    -175.518
  O     -128.534      47.100    -181.200
  O     -127.784      46.243    -178.860
  H     -130.424      54.042    -177.893
  H     -129.258      47.506    -181.705
  H     -128.106      48.989    -174.098
  H     -128.925      49.512    -176.380
  H     -131.559      52.071    -176.900
  H     -128.788      52.706    -177.274
  H     -128.422      50.548    -178.278
  H     -131.082      51.093    -179.737
  H     -129.249      51.029    -171.205
  H     -131.167      48.586    -179.860
  H     -128.212      49.718    -171.671
  H     -129.889      49.291    -180.853
  P     -126.922      52.043    -180.004
  C     -126.885      52.146    -182.576
  O     -126.644      52.852    -181.365
  O     -126.032      50.866    -179.790
  O     -126.769      53.187    -178.892
  H     -127.282      53.995    -179.066
  H     -126.667      52.781    -183.409
  H     -127.911      51.846    -182.616
  H     -126.258      51.280    -182.615

 6  7  8  9  10  11  12  13  14  15  16  26  30  31  32  33  35 0
 6-311+G(2d,p)
 ****
 37  38 0
 6-311+G(2d,p)
 ****
 1  2  3  4  5  17  18  19  20  21  22  23  24  25 0
 3-21G
 ****
 27  28  29  34  36  39  40  41  42  43  44  45  46 0
 3-21G
 ****


