%nproc=1
%NoSave
%Mem=1900MB
#P OB98/GEN NMR

erre ene a

0 1
  C     -452.273    -613.891    -365.706
  O     -451.474    -614.949    -365.203
  P     -449.948    -615.013    -365.702
  C     -449.146    -613.717    -363.582
  O     -449.194    -613.788    -364.999
  C     -447.689    -613.749    -363.111
  O     -446.953    -612.658    -363.699
  C     -447.521    -613.616    -361.606
  O     -447.726    -614.865    -360.969
  C     -446.083    -613.104    -361.507
  O     -445.143    -614.188    -361.629
  C     -446.003    -612.164    -362.719
  N     -444.190    -607.956    -360.576
  C     -443.689    -609.249    -360.565
  N     -442.518    -609.431    -359.921
  N     -444.288    -610.264    -361.128
  C     -445.460    -609.934    -361.717
  C     -446.066    -608.697    -361.792
  C     -445.368    -607.577    -361.207
  O     -445.715    -606.400    -361.276
  N     -447.259    -608.759    -362.462
  C     -447.362    -610.022    -362.820
  N     -446.287    -610.776    -362.415
  O     -450.052    -614.582    -367.238
  O     -449.275    -616.340    -365.521
  H     -445.268    -614.801    -360.882
  H     -450.047    -615.364    -367.818
  H     -443.676    -607.215    -360.141
  H     -448.180    -610.442    -363.386
  H     -445.009    -612.189    -363.189
  H     -445.884    -612.622    -360.546
  H     -442.018    -608.702    -359.440
  H     -448.204    -612.862    -361.204
  H     -442.142    -610.369    -359.891
  H     -447.247    -614.688    -363.466
  H     -449.682    -614.575    -363.159
  H     -449.640    -612.796    -363.252
  P     -448.506    -614.867    -359.568
  C     -450.715    -615.923    -360.444
  O     -450.070    -614.782    -359.895
  O     -448.170    -613.424    -358.957
  O     -448.105    -615.967    -358.638
  H     -448.076    -613.494    -357.985
  H     -451.756    -615.918    -360.132
  H     -450.238    -616.852    -360.116
  H     -450.668    -615.868    -361.533
  H     -453.259    -613.964    -365.298
  H     -452.322    -613.957    -366.773
  H     -451.840    -612.953    -365.427

 3  4  5  6  7  8  9  10  11  12  23  26  30  31 0
 6-311+G(2d,p)
 ****
 33  35  36  37  38 0
 6-311+G(2d,p)
 ****
 1  2  13  14  15  16  17  18  19  20  21  22  24  25 0
 3-21G
 ****
 27  28  29  32  34  39  40  41  42  43  44  45  46  47  48  49 0
 3-21G
 ****


