%nproc=1
%NoSave
%Mem=1900MB
#P OB98/GEN NMR

erre ene a

0 1
  C     -982.099    -610.907       9.839
  O     -982.264    -609.576      10.338
  P     -983.024    -608.508       9.405
  C     -985.064    -608.343      11.029
  O     -984.590    -608.662       9.726
  C     -985.812    -606.990      11.000
  O     -986.993    -607.126      10.188
  C     -986.294    -606.531      12.371
  O     -985.243    -605.955      13.123
  C     -987.391    -605.552      12.001
  O     -986.859    -604.267      11.695
  C     -987.996    -606.205      10.727
  N     -989.278    -606.881      10.981
  C     -990.369    -606.061      11.135
  O     -990.309    -604.849      11.100
  N     -991.558    -606.703      11.384
  C     -991.731    -608.055      11.549
  O     -992.822    -608.549      11.826
  C     -990.520    -608.882      11.403
  C     -989.358    -608.269      11.143
  O     -982.900    -609.128       7.933
  O     -982.488    -607.133       9.483
  H     -986.539    -603.897      12.557
  H     -982.809    -608.405       7.280
  H     -992.378    -606.124      11.479
  H     -990.619    -609.942      11.519
  H     -988.449    -608.835      11.021
  H     -988.152    -605.438       9.969
  H     -988.124    -605.418      12.807
  H     -986.745    -607.399      12.913
  H     -985.144    -606.251      10.557
  H     -984.224    -608.261      11.713
  H     -985.712    -609.140      11.406
  P     -985.117    -606.387      14.675
  C     -983.221    -608.166      14.326
  O     -984.567    -607.905      14.630
  O     -986.676    -606.507      15.062
  O     -984.335    -605.417      15.495
  H     -987.214    -606.825      14.315
  H     -982.560    -607.376      14.724
  H     -983.099    -608.209      13.226
  H     -982.950    -609.114      14.785
  H     -981.580    -611.498      10.564
  H     -981.534    -610.880       8.931
  H     -983.060    -611.338       9.649

 3  4  5  6  7  8  9  10  11  12  13  23  28  29  30  31  32 0
 6-311+G(2d,p)
 ****
 33  34 0
 6-311+G(2d,p)
 ****
 1  2  14  15  16  17  18  19  20  21  22  24  25  26 0
 3-21G
 ****
 27  35  36  37  38  39  40  41  42  43  44  45 0
 3-21G
 ****


