%nproc=1
%NoSave
%Mem=1900MB
#P OB98/GEN NMR

erre ene a

0 1
  C      -15.144     975.572     585.780
  O      -14.391     976.640     585.240
  P      -13.499     977.558     586.186
  C      -12.074     978.138     584.122
  O      -12.737     978.644     585.263
  C      -11.225     979.235     583.457
  O      -10.248     979.744     584.383
  C      -10.420     978.752     582.254
  O      -11.239     978.532     581.112
  C       -9.426     979.902     582.121
  O      -10.013     981.017     581.429
  C       -9.138     980.260     583.602
  N       -7.865     979.737     584.059
  C       -6.734     980.305     583.453
  O       -6.855     981.099     582.538
  N       -5.489     979.912     583.910
  C       -5.395     978.961     584.792
  N       -4.145     978.653     585.259
  C       -6.567     978.234     585.345
  C       -7.754     978.695     584.940
  O      -12.619     976.830     587.152
  O      -14.557     978.447     586.968
  H      -14.363     978.390     587.942
  H       -9.278     981.619     581.173
  H       -6.419     977.407     586.037
  H       -8.676     978.242     585.322
  H       -9.158     981.351     583.735
  H       -8.536     979.598     581.559
  H       -9.889     977.843     582.518
  H      -11.899     980.066     583.168
  H       -3.348     979.205     584.869
  H      -12.804     977.765     583.404
  H       -3.991     978.205     586.148
  H      -11.440     977.286     584.408
  P      -10.718     977.448     580.033
  C      -13.238     976.965     579.589
  O      -11.924     977.155     579.047
  O      -10.599     976.102     580.908
  O       -9.421     977.805     579.413
  H       -9.815     975.576     580.612
  H      -13.964     977.112     578.770
  H      -13.417     977.654     580.377
  H      -13.315     975.913     579.942
  H      -15.674     975.076     584.994
  H      -15.842     975.954     586.495
  H      -14.486     974.878     586.260

 3  4  5  6  7  8  9  10  11  12  13  24  27  28  29  30  32 0
 6-311+G(2d,p)
 ****
 34  35 0
 6-311+G(2d,p)
 ****
 1  2  14  15  16  17  18  19  20  21  22  23  25  26 0
 3-21G
 ****
 31  33  36  37  38  39  40  41  42  43  44  45  46 0
 3-21G
 ****


