%nproc=1
%NoSave
%Mem=1900MB
#P OB98/GEN NMR

erre ene a

0 1
  C      113.870    -159.588     176.853
  O      114.476    -160.733     176.287
  H      112.996    -159.877     177.443
  H      114.592    -159.098     177.510
  H      113.575    -158.887     176.066
  P      113.584    -161.584     175.261
  C      112.579    -161.076     172.922
  O      113.085    -160.549     174.140
  C      111.696    -160.043     172.230
  O      110.530    -159.769     173.032
  C      112.359    -158.691     171.995
  O      113.206    -158.711     170.855
  C      111.139    -157.813     171.767
  O      110.656    -157.990     170.422
  C      110.132    -158.397     172.768
  N      109.203    -153.868     174.960
  C      109.090    -154.293     173.684
  N      109.336    -155.519     173.179
  C      109.720    -156.362     174.153
  C      109.860    -156.083     175.501
  C      109.588    -154.765     175.903
  N      109.774    -154.326     177.205
  N      110.290    -157.201     176.190
  C      110.425    -158.130     175.268
  N      110.086    -157.673     174.024
  O      112.261    -161.892     176.113
  O      114.218    -162.834     174.752
  H      111.358    -157.668     169.826
  H      112.330    -162.784     176.500
  H      108.763    -153.546     172.968
  H      110.766    -159.140     175.452
  H      109.116    -158.428     172.363
  H      111.347    -156.747     171.898
  H      112.889    -158.343     172.887
  H      111.350    -160.478     171.282
  H      111.989    -161.975     173.130
  H      110.004    -153.338     177.270
  H      110.308    -154.959     177.788
  H      113.423    -161.345     172.280
  P      114.287    -157.535     170.710
  C      116.447    -157.005     172.032
  O      115.117    -157.505     172.085
  O      113.387    -156.213     170.779
  O      115.101    -157.568     169.462
  H      113.540    -155.667     169.983
  H      116.881    -157.041     173.009
  H      116.434    -155.993     171.685
  H      117.027    -157.605     171.362

 6  7  8  9  10  11  12  13  14  15  25  28  32  33  34  35 0
 6-311+G(2d,p)
 ****
 36  39  40 0
 6-311+G(2d,p)
 ****
 1  2  3  4  5  16  17  18  19  20  21  22  23  24 0
 3-21G
 ****
 26  27  29  30  31  37  38  41  42  43  44  45  46  47  48 0
 3-21G
 ****


