%nproc=1
%NoSave
%Mem=1900MB
#P OB98/GEN NMR

erre ene a

0 1
  C      566.118      57.789     187.447
  O      567.342      58.388     187.070
  H      565.322      58.201     186.822
  H      565.885      57.997     188.497
  H      566.165      56.707     187.284
  P      568.619      58.159     188.020
  C      567.481      59.763     189.690
  O      568.111      58.498     189.509
  C      566.732      59.824     191.023
  O      565.919      61.015     191.100
  C      565.755      58.675     191.241
  O      566.359      57.408     191.387
  C      564.881      59.220     192.356
  O      565.460      59.041     193.650
  C      564.828      60.726     192.000
  N      563.547      61.114     191.425
  C      562.674      61.796     192.278
  O      562.932      62.042     193.457
  N      561.471      62.156     191.740
  C      561.040      61.871     190.474
  O      559.939      62.206     190.059
  C      561.986      61.119     189.630
  C      563.175      60.786     190.138
  O      569.868      58.896     187.625
  O      568.792      56.568     188.049
  H      564.824      59.399     194.294
  H      569.684      56.313     188.398
  H      560.834      62.658     192.338
  H      561.678      60.868     188.630
  H      563.894      60.233     189.532
  H      564.994      61.334     192.898
  H      563.899      58.741     192.377
  H      565.118      58.598     190.352
  H      567.473      59.873     191.827
  H      566.776      59.905     188.868
  H      568.237      60.552     189.642
  P      565.613      56.028     191.090
  C      564.599      55.720     193.487
  O      564.362      55.897     192.093
  O      566.482      54.828     190.891
  O      564.886      56.349     189.688
  H      564.875      55.515     189.175
  H      563.664      55.652     194.002
  H      565.153      56.554     193.863
  H      565.158      54.821     193.642

 6  7  8  9  10  11  12  13  14  15  16  26  31  32  33  34  35 0
 6-311+G(2d,p)
 ****
 36  37 0
 6-311+G(2d,p)
 ****
 1  2  3  4  5  17  18  19  20  21  22  23  24  25 0
 3-21G
 ****
 27  28  29  30  38  39  40  41  42  43  44  45 0
 3-21G
 ****


