%nproc=1
%NoSave
%Mem=1900MB
#P OB98/GEN NMR

erre ene a

0 1
  C      195.757    -268.344     327.900
  O      195.100    -267.171     327.468
  P      193.941    -266.507     328.351
  C      191.982    -267.963     327.574
  O      192.560    -266.668     327.539
  C      190.922    -268.126     326.478
  O      190.343    -269.459     326.578
  C      189.769    -267.119     326.542
  O      189.376    -266.852     325.192
  C      188.674    -267.904     327.246
  O      187.376    -267.368     327.021
  C      188.906    -269.288     326.655
  N      184.908    -272.424     327.211
  C      185.158    -271.441     326.325
  N      186.236    -270.632     326.262
  C      187.114    -270.924     327.239
  C      186.984    -271.883     328.236
  C      185.818    -272.674     328.190
  N      185.562    -273.706     329.067
  N      188.072    -271.839     329.084
  C      188.836    -270.877     328.615
  N      188.328    -270.342     327.462
  O      194.221    -265.124     328.839
  O      193.758    -267.525     329.575
  H      187.147    -267.497     326.080
  H      194.144    -267.139     330.388
  H      184.397    -271.285     325.569
  H      189.758    -270.536     329.059
  H      188.500    -269.375     325.638
  H      188.856    -267.893     328.329
  H      190.022    -266.182     327.064
  H      191.431    -268.067     325.502
  H      191.510    -268.099     328.554
  H      184.770    -274.290     328.861
  H      186.327    -274.078     329.622
  H      192.766    -268.728     327.458
  P      189.565    -265.384     324.573
  C      187.028    -265.095     324.838
  O      188.148    -264.951     323.972
  O      190.727    -265.217     323.656
  O      189.701    -264.447     325.876
  H      190.096    -263.589     325.619
  H      186.708    -266.145     324.843
  H      186.212    -264.473     324.473
  H      187.286    -264.793     325.859
  H      196.493    -268.627     327.177
  H      195.043    -269.133     328.010
  H      196.233    -268.160     328.841

 3  4  5  6  7  8  9  10  11  12  22  25  29  30  31  32 0
 6-311+G(2d,p)
 ****
 33  36  37 0
 6-311+G(2d,p)
 ****
 1  2  13  14  15  16  17  18  19  20  21  23  24  26 0
 3-21G
 ****
 27  28  34  35  38  39  40  41  42  43  44  45  46  47  48 0
 3-21G
 ****


