%nproc=1
%NoSave
%Mem=1900MB
#P OB98/GEN NMR

erre ene a

0 1
  C       50.310    -494.539    -161.829
  O       48.947    -494.490    -162.263
  P       47.810    -494.570    -161.131
  C       46.695    -496.861    -161.712
  O       46.622    -495.448    -161.763
  C       45.963    -497.487    -162.908
  O       44.588    -496.999    -162.956
  C       46.608    -497.195    -164.269
  O       46.458    -498.382    -165.064
  C       45.747    -496.073    -164.822
  O       45.840    -495.982    -166.238
  C       44.372    -496.485    -164.286
  N       43.414    -495.383    -164.286
  C       42.279    -495.538    -165.075
  O       42.101    -496.507    -165.811
  N       41.373    -494.511    -165.025
  C       41.525    -493.344    -164.336
  O       40.679    -492.454    -164.327
  C       42.796    -493.188    -163.614
  C       43.667    -494.200    -163.624
  O       47.248    -493.074    -161.141
  O       48.331    -495.046    -159.814
  H       47.220    -492.675    -162.027
  H       45.725    -496.876    -166.624
  H       40.528    -494.616    -165.563
  H       42.980    -492.250    -163.107
  H       44.621    -494.110    -163.121
  H       43.958    -497.305    -164.889
  H       46.060    -495.118    -164.390
  H       47.668    -496.935    -164.191
  H       45.917    -498.571    -162.746
  H       46.231    -497.226    -160.788
  H       47.745    -497.169    -161.685
  P       47.754    -499.303    -165.310
  C       47.196    -499.586    -167.852
  O       47.462    -500.193    -166.611
  O       47.582    -500.351    -164.107
  O       49.061    -498.583    -165.266
  H       46.678    -500.708    -164.036
  H       47.258    -500.347    -168.635
  H       47.921    -498.802    -168.071
  H       46.183    -499.168    -167.852
  H       50.957    -494.477    -162.679
  H       50.487    -495.459    -161.312
  H       50.505    -493.718    -161.171

 3  4  5  6  7  8  9  10  11  12  13  24  28  29  30  31  32 0
 6-311+G(2d,p)
 ****
 33  34 0
 6-311+G(2d,p)
 ****
 1  2  14  15  16  17  18  19  20  21  22  23  25  26  27 0
 3-21G
 ****
 35  36  37  38  39  40  41  42  43  44  45 0
 3-21G
 ****


