%nproc=1
%NoSave
%Mem=1900MB
#P OB98/GEN NMR

erre ene a

0 1
  C      173.845     -90.070    -113.960
  O      174.572     -91.031    -113.213
  P      174.572     -90.909    -111.615
  C      176.699     -89.420    -111.704
  O      175.370     -89.572    -111.222
  C      177.549     -88.625    -110.714
  O      177.151     -87.227    -110.741
  C      177.422     -89.106    -109.265
  O      178.678     -88.931    -108.592
  C      176.439     -88.128    -108.652
  O      176.578     -88.060    -107.233
  C      176.820     -86.841    -109.391
  N      175.143     -82.583    -107.238
  C      176.400     -83.155    -107.190
  N      177.305     -82.553    -106.390
  N      176.741     -84.218    -107.872
  C      175.727     -84.719    -108.627
  C      174.449     -84.235    -108.768
  C      174.083     -83.062    -107.998
  O      172.979     -82.523    -107.973
  N      173.719     -84.989    -109.649
  C      174.538     -85.958    -110.009
  N      175.757     -85.858    -109.389
  O      175.560     -92.085    -111.166
  O      173.230     -91.065    -110.976
  H      175.888     -87.450    -106.910
  H      175.050     -92.826    -110.797
  H      174.927     -81.771    -106.687
  H      174.293     -86.762    -110.687
  H      177.710     -86.377    -108.952
  H      175.412     -88.433    -108.880
  H      177.089     -81.768    -105.788
  H      177.093     -90.145    -109.159
  H      178.220     -82.977    -106.303
  H      178.597     -88.663    -111.041
  H      176.673     -88.892    -112.659
  H      177.143     -90.406    -111.872
  P      179.211     -90.198    -107.758
  C      177.725     -89.358    -105.787
  O      178.135     -90.446    -106.597
  O      180.485     -89.619    -106.981
  O      179.547     -91.386    -108.599
  H      181.112     -90.336    -106.772
  H      176.656     -89.187    -105.947
  H      178.275     -88.439    -106.021
  H      177.896     -89.612    -104.738
  H      173.940     -90.283    -115.004
  H      174.233     -89.093    -113.759
  H      172.813     -90.108    -113.681

 3  4  5  6  7  8  9  10  11  12  23  26  30  31 0
 6-311+G(2d,p)
 ****
 33  35  36  37  38 0
 6-311+G(2d,p)
 ****
 1  2  13  14  15  16  17  18  19  20  21  22  24  25 0
 3-21G
 ****
 27  28  29  32  34  39  40  41  42  43  44  45  46  47  48  49 0
 3-21G
 ****


