%nproc=1
%NoSave
%Mem=1900MB
#P OB98/GEN NMR

erre ene a

0 1
  C      619.431     297.203    -400.552
  O      619.800     296.167    -399.667
  H      619.911     298.130    -400.225
  H      618.347     297.348    -400.542
  H      619.772     296.973    -401.565
  P      619.165     294.720    -399.956
  C      617.689     294.927    -397.837
  O      617.725     294.766    -399.252
  C      616.246     294.959    -397.336
  O      615.576     296.134    -397.826
  C      615.397     293.773    -397.784
  O      615.607     292.660    -396.926
  C      613.995     294.340    -397.624
  O      613.594     294.259    -396.241
  C      614.175     295.816    -398.033
  N      610.427     297.309    -401.199
  C      610.403     296.921    -399.907
  N      611.430     296.484    -399.142
  C      612.577     296.483    -399.845
  C      612.750     296.849    -401.173
  C      611.610     297.289    -401.860
  N      611.635     297.687    -403.180
  N      614.070     296.712    -401.550
  C      614.689     296.320    -400.454
  N      613.825     296.133    -399.403
  O      620.031     293.554    -399.612
  O      618.794     294.854    -401.510
  H      612.738     294.726    -396.172
  H      618.426     295.735    -401.698
  H      609.433     296.960    -399.425
  H      615.759     296.188    -400.364
  H      613.588     296.487    -397.394
  H      613.254     293.791    -398.207
  H      615.566     293.525    -398.840
  H      616.271     295.030    -396.237
  H      618.198     295.854    -397.547
  H      610.745     297.796    -403.651
  H      612.488     297.541    -403.700
  H      618.227     294.082    -397.394
  P      615.429     291.156    -397.455
  C      613.093     290.930    -396.403
  O      613.842     290.960    -397.607
  O      616.131     290.129    -396.647
  O      615.934     291.209    -398.972
  H      616.109     290.309    -399.297
  H      612.056     290.796    -396.631
  H      613.226     291.852    -395.877
  H      613.432     290.119    -395.792

 6  7  8  9  10  11  12  13  14  15  25  28  32  33  34  35 0
 6-311+G(2d,p)
 ****
 36  39  40 0
 6-311+G(2d,p)
 ****
 1  2  3  4  5  16  17  18  19  20  21  22  23  24 0
 3-21G
 ****
 26  27  29  30  31  37  38  41  42  43  44  45  46  47 0
 3-21G
 ****
 48 0
 3-21G
 ****


