%nproc=1
%NoSave
%Mem=1900MB
#P OB98/GEN NMR

erre ene a

0 1
  C     -756.504     210.247    -895.140
  O     -755.682     209.645    -894.170
  H     -755.972     211.102    -895.580
  H     -757.433     210.614    -894.680
  H     -756.747     209.538    -895.940
  P     -756.287     208.371    -893.410
  C     -754.375     206.770    -894.120
  O     -755.748     207.072    -894.200
  C     -753.972     205.748    -895.200
  O     -754.610     204.459    -894.880
  C     -754.415     206.150    -896.620
  O     -753.404     205.734    -897.540
  C     -755.662     205.297    -896.850
  O     -755.926     205.105    -898.230
  C     -755.266     204.033    -896.080
  N     -757.270     199.434    -896.620
  C     -756.043     199.915    -897.000
  N     -755.196     199.064    -897.640
  N     -755.656     201.148    -896.800
  C     -756.577     201.899    -896.120
  C     -757.824     201.531    -895.700
  C     -758.253     200.161    -895.960
  O     -759.336     199.661    -895.650
  N     -758.474     202.568    -895.090
  C     -757.614     203.582    -895.150
  N     -756.450     203.212    -895.770
  O     -757.844     208.410    -893.770
  O     -756.048     208.342    -891.930
  H     -756.729     204.540    -898.290
  H     -758.386     208.029    -893.050
  H     -757.523     198.471    -896.810
  H     -757.775     204.596    -894.770
  H     -754.579     203.385    -896.650
  H     -756.541     205.782    -896.390
  H     -755.417     198.089    -897.800
  H     -754.614     207.212    -896.730
  H     -754.293     199.422    -897.920
  H     -752.899     205.569    -895.160
  H     -754.155     206.351    -893.120
  H     -753.778     207.688    -894.260
  P     -752.941     206.804    -898.660
  C     -750.461     207.090    -897.910
  O     -751.734     207.684    -898.050
  O     -754.171     207.824    -898.700
  O     -752.668     206.208    -900.000
  H     -754.654     207.706    -899.540
  H     -749.779     207.802    -897.494
  H     -750.107     206.775    -898.869
  H     -750.532     206.243    -897.260

 6  7  8  9  10  11  12  13  14  15  26  29  33  34 0
 6-311+G(2d,p)
 ****
 36  38  39  40  41 0
 6-311+G(2d,p)
 ****
 1  2  3  4  5  16  17  18  19  20  21  22  23  24  25 0
 3-21G
 ****
 27  28  30  31  32  35  37  42  43  44  45  46  47 0
 3-21G
 ****
 48  49 0
 3-21G
 ****


