%nproc=1
%NoSave
%Mem=1900MB
#P OB98/GEN NMR

erre ene a

0 1
  C      751.326     577.796    -395.619
  O      751.767     576.809    -394.709
  H      752.111     578.545    -395.730
  H      750.424     578.285    -395.246
  H      751.131     577.344    -396.598
  P      750.748     575.647    -394.282
  C      750.738     576.282    -391.775
  O      751.059     575.300    -392.748
  C      751.846     576.400    -390.725
  O      752.959     577.143    -391.293
  C      751.417     577.130    -389.445
  O      752.188     576.593    -388.357
  C      751.849     578.551    -389.751
  O      751.855     579.352    -388.597
  C      753.187     578.291    -390.442
  N      753.667     579.441    -391.189
  C      753.998     580.575    -390.440
  O      753.873     580.565    -389.213
  N      754.439     581.693    -391.099
  C      754.479     581.707    -392.389
  N      754.913     582.855    -392.981
  C      754.080     580.550    -393.227
  C      753.696     579.464    -392.563
  O      750.691     574.468    -395.192
  O      749.329     576.394    -394.201
  H      752.314     580.206    -388.766
  H      748.793     576.160    -394.981
  H      754.112     580.621    -394.308
  H      753.385     578.563    -393.092
  H      753.958     578.005    -389.707
  H      751.144     579.024    -390.448
  H      750.346     577.033    -389.230
  H      752.219     575.390    -390.500
  H      755.160     583.627    -392.370
  H      749.803     575.974    -391.303
  H      754.963     582.990    -393.982
  H      750.587     577.254    -392.253
  P      751.535     575.770    -387.145
  C      752.505     576.900    -385.038
  O      752.547     575.767    -385.901
  O      751.043     574.412    -387.529
  O      750.321     576.681    -386.633
  H      749.616     576.105    -386.283
  H      753.222     576.778    -384.253
  H      751.526     576.990    -384.615
  H      752.735     577.783    -385.597

 6  7  8  9  10  11  12  13  14  15  16  26  30  31  32  33  35 0
 6-311+G(2d,p)
 ****
 37  38 0
 6-311+G(2d,p)
 ****
 1  2  3  4  5  17  18  19  20  21  22  23  24  25 0
 3-21G
 ****
 27  28  29  34  36  39  40  41  42  43  44  45  46 0
 3-21G
 ****


