%nproc=1
%NoSave
%Mem=1900MB
#P OB98/GEN NMR

erre ene a

0 1
  C     -152.428     -16.789      60.319
  O     -152.653     -17.797      59.353
  H     -153.211     -16.032      60.224
  H     -151.458     -16.310      60.162
  H     -152.476     -17.215      61.325
  P     -151.556     -18.951      59.169
  C     -151.770     -19.975      61.523
  O     -151.998     -20.156      60.132
  C     -152.527     -21.026      62.339
  O     -153.945     -20.898      62.053
  C     -152.105     -22.467      62.028
  O     -152.129     -23.217      63.245
  C     -153.198     -22.936      61.090
  O     -153.317     -24.346      61.091
  C     -154.425     -22.183      61.612
  N     -155.450     -22.057      60.574
  C     -156.112     -23.235      60.206
  O     -155.834     -24.304      60.758
  N     -157.023     -23.192      59.184
  C     -157.219     -22.083      58.539
  N     -158.105     -22.120      57.510
  C     -156.523     -20.823      58.874
  C     -155.663     -20.881      59.894
  O     -150.129     -18.530      59.310
  O     -151.856     -19.526      57.704
  H     -153.514     -24.655      62.002
  H     -151.324     -19.046      57.042
  H     -156.716     -19.927      58.305
  H     -155.100     -20.007      60.203
  H     -154.861     -22.698      62.478
  H     -152.965     -22.620      60.064
  H     -151.114     -22.532      61.568
  H     -152.396     -20.800      63.406
  H     -158.540     -23.012      57.301
  H     -152.122     -18.975      61.796
  H     -158.309     -21.332      56.911
  H     -150.697     -20.039      61.735
  P     -150.776     -23.821      63.864
  C     -149.487     -21.611      63.995
  O     -150.052     -22.684      64.743
  O     -149.887     -24.500      62.874
  O     -151.291     -24.864      64.967
  H     -150.642     -25.590      65.053
  H     -149.032     -20.911      64.664
  H     -150.257     -21.121      63.436
  H     -148.748     -21.995      63.323

 6  7  8  9  10  11  12  13  14  15  16  26  30  31  32  33  35 0
 6-311+G(2d,p)
 ****
 37  38 0
 6-311+G(2d,p)
 ****
 1  2  3  4  5  17  18  19  20  21  22  23  24  25 0
 3-21G
 ****
 27  28  29  34  36  39  40  41  42  43  44  45  46 0
 3-21G
 ****


