%nproc=1
%NoSave
%Mem=1900MB
#P OB98/GEN NMR

erre ene a

0 1
  C      -29.448    -159.356    -309.185
  O      -30.221    -160.527    -308.899
  P      -31.066    -160.506    -307.530
  C      -29.564    -161.949    -305.976
  O      -30.034    -160.645    -306.307
  C      -29.435    -162.140    -304.461
  O      -28.337    -161.328    -303.969
  C      -30.678    -161.749    -303.653
  O      -30.820    -162.663    -302.559
  C      -30.304    -160.398    -303.070
  O      -31.062    -160.086    -301.904
  C      -28.812    -160.603    -302.824
  N      -27.008    -157.233    -299.508
  C      -27.604    -158.464    -299.285
  N      -27.756    -158.831    -297.993
  N      -28.007    -159.255    -300.243
  C      -27.758    -158.772    -301.484
  C      -27.168    -157.576    -301.832
  C      -26.763    -156.690    -300.762
  O      -26.278    -155.566    -300.897
  N      -27.090    -157.439    -303.198
  C      -27.638    -158.539    -303.669
  N      -28.067    -159.378    -302.670
  O      -31.837    -161.909    -307.556
  O      -32.021    -159.360    -307.430
  H      -32.005    -160.107    -302.160
  H      -32.798    -161.763    -307.478
  H      -26.734    -156.652    -298.733
  H      -27.773    -158.771    -304.718
  H      -28.636    -161.226    -301.935
  H      -30.487    -159.614    -303.814
  H      -27.409    -158.300    -297.213
  H      -31.602    -161.715    -304.236
  H      -28.150    -159.749    -297.809
  H      -29.173    -163.188    -304.271
  H      -28.590    -162.112    -306.444
  H      -30.260    -162.683    -306.391
  P      -31.573    -164.051    -302.879
  C      -33.672    -163.236    -301.571
  O      -33.141    -163.721    -302.791
  O      -31.291    -164.930    -301.570
  O      -31.108    -164.722    -304.130
  H      -31.313    -165.882    -301.793
  H      -32.889    -162.947    -300.863
  H      -34.287    -164.015    -301.116
  H      -34.297    -162.365    -301.784
  H      -28.933    -159.486    -310.114
  H      -28.736    -159.199    -308.402
  H      -30.097    -158.508    -309.253

 3  4  5  6  7  8  9  10  11  12  23  26  30  31  33  0
 6-311+G(2d,p)
 ****
 35  36  37  38 0
 6-311+G(2d,p)
 ****
 1  2  13  14  15  16  17  18  19  20  21  22  24  25  27  28  29 0
 3-21G
 ****
 32  34  39  40  41  42  43  44  45  46  47  48  49 0
 3-21G
 ****


