%nproc=1
%NoSave
%Mem=1900MB
#P OB98/GEN NMR

erre ene a

0 1
  C     -177.721      75.703    -124.045
  O     -178.277      76.201    -125.250
  P     -178.650      75.211    -126.460
  C     -177.013      76.472    -128.012
  O     -177.367      75.229    -127.419
  C     -175.495      76.630    -128.020
  O     -174.985      76.464    -126.682
  C     -174.759      75.606    -128.875
  O     -174.865      75.922    -130.254
  C     -173.355      75.697    -128.287
  O     -172.666      76.842    -128.811
  C     -173.653      75.907    -126.788
  N     -173.533      74.680    -126.008
  C     -172.250      74.137    -125.892
  O     -171.280      74.685    -126.415
  N     -172.083      72.997    -125.147
  C     -173.108      72.431    -124.589
  N     -172.873      71.343    -123.807
  C     -174.485      72.938    -124.732
  C     -174.622      74.055    -125.443
  O     -179.941      75.513    -127.141
  O     -178.583      73.751    -125.820
  H     -172.798      76.831    -129.779
  H     -179.436      73.457    -125.417
  H     -175.309      72.424    -124.259
  H     -175.597      74.502    -125.579
  H     -172.975      76.659    -126.369
  H     -172.740      74.814    -128.489
  H     -175.165      74.603    -128.705
  H     -175.258      77.649    -128.354
  H     -171.904      71.137    -123.595
  H     -177.454      77.279    -127.418
  H     -173.550      71.028    -123.124
  H     -177.420      76.517    -129.026
  P     -175.551      74.835    -131.212
  C     -173.476      74.578    -132.745
  O     -174.347      73.960    -131.816
  O     -176.069      75.709    -132.447
  O     -176.650      74.054    -130.571
  H     -177.028      75.871    -132.369
  H     -172.596      73.942    -132.870
  H     -173.153      75.557    -132.383
  H     -173.975      74.681    -133.712
  H     -177.546      76.515    -123.371
  H     -176.796      75.209    -124.257
  H     -178.402      75.009    -123.598

 3  4  5  6  7  8  9  10  11  12  13  23  27  28  29  30  32 0
 6-311+G(2d,p)
 ****
 34  35 0
 6-311+G(2d,p)
 ****
 1  2  14  15  16  17  18  19  20  21  22  24  25  26 0
 3-21G
 ****
 31  33  36  37  38  39  40  41  42  43  44  45  46 0
 3-21G
 ****


