%nproc=1
%NoSave
%Mem=1900MB
#P OB98/GEN NMR

erre ene a

0 1
  C     -478.476     -71.860     206.951
  O     -478.099     -72.350     205.679
  P     -478.532     -73.811     205.198
  C     -476.252     -75.082     205.470
  O     -477.577     -74.876     205.904
  C     -475.603     -76.167     206.344
  O     -475.585     -75.747     207.720
  C     -476.370     -77.485     206.261
  O     -475.793     -78.339     205.282
  C     -476.258     -78.026     207.676
  O     -474.985     -78.675     207.867
  C     -476.324     -76.724     208.510
  N     -477.651     -76.157     208.811
  C     -477.845     -75.452     209.998
  O     -476.959     -75.243     210.822
  N     -479.129     -75.018     210.226
  C     -480.190     -75.168     209.377
  O     -481.359     -74.993     209.695
  C     -479.855     -75.669     208.037
  C     -478.633     -76.155     207.829
  O     -478.062     -73.847     203.670
  O     -479.984     -74.128     205.347
  H     -475.002     -79.494     207.336
  H     -478.814     -73.665     203.075
  H     -479.306     -74.629     211.148
  H     -480.636     -75.682     207.288
  H     -478.378     -76.569     206.856
  H     -475.796     -76.842     209.465
  H     -477.015     -78.779     207.872
  H     -477.429     -77.295     206.041
  H     -474.563     -76.312     206.019
  H     -475.683     -74.151     205.535
  H     -476.246     -75.391     204.419
  P     -476.743     -79.274     204.396
  C     -476.220     -81.360     205.797
  O     -477.218     -80.446     205.384
  O     -476.162     -79.728     203.092
  O     -478.053     -78.377     204.184
  H     -478.014     -77.932     203.313
  H     -476.628     -81.986     206.585
  H     -475.346     -80.825     206.171
  H     -475.935     -81.998     204.951
  H     -478.090     -70.870     207.081
  H     -478.079     -72.500     207.712
  H     -479.543     -71.839     207.023

 3  4  5  6  7  8  9  10  11  12  13  23  28  29  30  31  32 0
 6-311+G(2d,p)
 ****
 33  34 0
 6-311+G(2d,p)
 ****
 1  2  14  15  16  17  18  19  20  21  22  24  25  26  27 0
 3-21G
 ****
 35  36  37  38  39  40  41  42  43  44  45 0
 3-21G
 ****


