%nproc=1
%NoSave
%Mem=1900MB
#P OB98/GEN NMR

erre ene a

0 1
  C       12.692     664.428     372.316
  O       12.535     664.068     370.949
  P       13.345     664.837     369.789
  C       13.271     662.812     368.184
  O       14.088     663.676     368.970
  C       13.939     661.441     368.058
  O       13.899     660.760     369.335
  C       13.272     660.499     367.066
  O       13.593     660.857     365.727
  C       13.810     659.152     367.539
  O       15.142     658.951     367.045
  C       13.836     659.340     369.071
  N       12.686     658.726     369.736
  C       12.628     657.332     369.716
  O       13.506     656.663     369.163
  N       11.581     656.708     370.353
  C       10.662     657.419     370.932
  N        9.679     656.747     371.608
  C       10.656     658.896     370.932
  C       11.694     659.472     370.330
  O       14.243     665.926     370.274
  O       12.218     665.321     368.772
  H       15.112     659.105     366.081
  H       11.845     666.213     368.988
  H        9.867     659.444     371.426
  H       11.778     660.557     370.295
  H       14.757     658.909     369.486
  H       13.196     658.302     367.211
  H       12.179     660.525     367.189
  H       14.996     661.594     367.786
  H        9.823     655.753     371.736
  H       13.157     663.250     367.188
  H        9.119     657.213     372.310
  H       12.282     662.723     368.658
  P       12.380     661.281     364.764
  C       13.797     662.716     363.134
  O       12.796     662.696     364.131
  O       11.199     661.634     365.793
  O       11.981     660.230     363.778
  H       10.569     660.884     365.845
  H       13.794     663.693     362.646
  H       13.609     661.947     362.377
  H       14.783     662.554     363.589
  H       12.072     663.802     372.923
  H       12.407     665.451     372.451
  H       13.715     664.302     372.603

 3  4  5  6  7  8  9  10  11  12  13  23  27  28  29  30  32 0
 6-311+G(2d,p)
 ****
 34  35 0
 6-311+G(2d,p)
 ****
 1  2  14  15  16  17  18  19  20  21  22  24  25  26 0
 3-21G
 ****
 31  33  36  37  38  39  40  41  42  43  44  45  46 0
 3-21G
 ****


