%nproc=1
%NoSave
%Mem=1900MB
#P OB98/GEN NMR

erre ene a

0 1
  C     -754.467     142.629     194.792
  O     -754.156     141.425     194.112
  P     -754.542     141.326     192.556
  C     -752.458     142.543     191.568
  O     -753.856     142.571     191.815
  C     -752.201     142.449     190.059
  O     -752.608     143.665     189.410
  C     -750.729     142.265     189.709
  O     -750.313     140.916     189.883
  C     -750.705     142.723     188.252
  O     -751.110     141.662     187.374
  C     -751.756     143.853     188.260
  N     -751.149     145.188     188.238
  C     -752.022     146.258     188.235
  O     -753.253     146.119     188.237
  N     -751.456     147.506     188.194
  C     -750.115     147.772     188.102
  O     -749.672     148.911     188.013
  C     -749.236     146.599     188.076
  C     -749.776     145.374     188.135
  O     -756.107     141.684     192.528
  O     -754.270     140.004     191.932
  H     -750.447     140.957     187.473
  H     -756.553     141.154     191.844
  H     -752.071     148.297     188.220
  H     -748.169     146.771     188.000
  H     -749.149     144.494     188.105
  H     -752.405     143.764     187.383
  H     -749.706     143.045     187.939
  H     -750.107     142.951     190.310
  H     -752.804     141.624     189.663
  H     -752.020     141.673     192.069
  H     -751.999     143.446     191.983
  P     -748.842     140.682     190.479
  C     -749.929     140.180     192.807
  O     -748.988     140.917     192.059
  O     -748.089     141.981     189.922
  O     -748.250     139.377     190.060
  H     -748.681     142.751     189.864
  H     -750.033     139.164     192.427
  H     -750.908     140.687     192.755
  H     -749.596     140.139     193.840
  H     -754.155     142.553     195.813
  H     -755.523     142.798     194.753
  H     -753.958     143.445     194.324

 3  4  5  6  7  8  9  10  11  12  13  23  28  29  30  31  32 0
 6-311+G(2d,p)
 ****
 33  34 0
 6-311+G(2d,p)
 ****
 1  2  14  15  16  17  18  19  20  21  22  24  25  26 0
 3-21G
 ****
 27  35  36  37  38  39  40  41  42  43  44  45 0
 3-21G
 ****


