%nproc=1
%NoSave
%Mem=1900MB
#P OB98/GEN NMR

erre ene a

0 1
  C      484.552     524.236     681.252
  O      483.866     524.416     682.475
  H      485.125     525.144     681.036
  H      483.845     524.060     680.440
  H      485.248     523.392     681.332
  P      482.934     523.200     682.959
  C      484.588     521.719     684.270
  O      483.586     522.729     684.349
  C      484.622     520.905     685.565
  O      485.340     519.670     685.313
  C      485.327     521.620     686.717
  O      484.644     521.333     687.940
  C      486.709     520.986     686.746
  O      487.314     521.065     688.030
  C      486.400     519.562     686.273
  N      490.499     516.680     687.238
  C      489.446     517.029     688.003
  N      488.381     517.793     687.660
  C      488.462     518.162     686.369
  C      489.477     517.888     685.472
  C      490.547     517.113     685.954
  N      491.637     516.773     685.195
  N      489.218     518.484     684.248
  C      488.061     519.094     684.403
  N      487.573     518.941     685.677
  O      482.713     522.116     681.955
  O      481.619     523.973     683.438
  H      487.386     522.015     688.282
  H      481.838     524.767     683.962
  H      489.453     516.656     689.022
  H      487.549     519.665     683.639
  H      486.072     518.916     687.095
  H      487.365     521.499     686.028
  H      485.379     522.702     686.571
  H      483.598     520.620     685.830
  H      485.568     522.172     684.096
  H      492.354     516.199     685.613
  H      491.683     517.062     684.223
  H      484.345     521.072     683.417
  P      483.987     522.551     688.749
  C      481.794     523.176     687.533
  O      482.387     522.455     688.611
  O      484.569     523.902     688.491
  O      484.212     522.112     690.277
  H      484.422     522.911     690.808
  H      480.734     523.033     687.549
  H      482.188     522.818     686.605
  H      482.015     524.218     687.636

 6  7  8  9  10  11  12  13  14  15  25  28  32  33  34  35 0
 6-311+G(2d,p)
 ****
 36  39  40 0
 6-311+G(2d,p)
 ****
 1  2  3  4  5  16  17  18  19  20  21  22  23  24 0
 3-21G
 ****
 26  27  29  30  31  37  38  41  42  43  44  45  46  47 0
 3-21G
 ****
 48 0
 3-21G
 ****


