%nproc=1
%NoSave
%Mem=1900MB
#P OB98/GEN NMR

erre ene a

0 1
  C     -349.675     277.742     -84.705
  O     -349.827     277.384     -86.068
  P     -351.289     277.531     -86.713
  C     -351.003     280.110     -86.534
  O     -351.822     278.975     -86.264
  C     -351.822     281.200     -87.222
  O     -351.860     280.965     -88.640
  C     -353.270     281.265     -86.774
  O     -353.378     281.901     -85.521
  C     -353.903     282.045     -87.923
  O     -353.793     283.459     -87.707
  C     -353.057     281.601     -89.141
  N     -353.790     280.726     -90.040
  C     -354.321     281.337     -91.186
  O     -354.173     282.546     -91.367
  N     -355.041     280.566     -92.068
  C     -355.213     279.306     -91.828
  N     -355.931     278.592     -92.736
  C     -354.690     278.630     -90.625
  C     -353.997     279.395     -89.779
  O     -352.170     276.521     -85.844
  O     -351.359     277.236     -88.176
  H     -354.147     283.877     -88.521
  H     -352.937     276.200     -86.353
  H     -354.863     277.573     -90.470
  H     -353.575     278.979     -88.869
  H     -352.729     282.478     -89.713
  H     -354.969     281.822     -88.024
  H     -353.702     280.254     -86.734
  H     -351.320     282.167     -87.051
  H     -356.283     279.082     -93.548
  H     -350.180     279.814     -87.195
  H     -356.104     277.600     -92.651
  H     -350.584     280.479     -85.591
  P     -354.786     281.818     -84.760
  C     -354.491     279.312     -84.312
  O     -355.270     280.303     -84.952
  O     -355.758     282.607     -85.763
  O     -354.845     282.361     -83.373
  H     -356.637     282.713     -85.356
  H     -355.012     278.352     -84.389
  H     -354.359     279.552     -83.254
  H     -353.517     279.222     -84.801
  H     -348.657     277.596     -84.409
  H     -350.313     277.130     -84.102
  H     -349.940     278.770     -84.575

 3  4  5  6  7  8  9  10  11  12  13  21  23  27  28  29  30  32 0
 6-311+G(2d,p)
 ****
 34  35 0
 6-311+G(2d,p)
 ****
 1  2  14  15  16  17  18  19  20  22  24  25  26 0
 3-21G
 ****
 31  33  36  37  38  39  40  41  42  43  44  45  46 0
 3-21G
 ****


