%nproc=1
%NoSave
%Mem=1900MB
#P OB98/GEN NMR

erre ene a

0 1
  C      954.177    -550.408     288.343
  O      953.320    -551.432     288.801
  H      954.803    -550.069     289.174
  H      953.595    -549.568     287.973
  H      954.831    -550.793     287.550
  P      952.247    -552.004     287.759
  C      950.746    -550.947     285.915
  O      951.546    -550.731     287.076
  C      949.362    -550.363     286.135
  O      949.467    -548.975     286.536
  C      948.483    -550.355     284.884
  O      947.901    -551.622     284.622
  C      947.440    -549.315     285.272
  O      946.379    -549.893     286.050
  C      948.254    -548.311     286.103
  N      948.540    -547.091     285.352
  C      947.859    -545.954     285.771
  O      947.068    -545.950     286.710
  N      948.082    -544.815     285.037
  C      948.873    -544.723     283.928
  O      948.998    -543.684     283.288
  C      949.558    -545.962     283.522
  C      949.360    -547.070     284.231
  O      951.108    -552.613     288.707
  O      952.778    -553.018     286.807
  H      951.151    -553.585     288.689
  H      945.833    -549.142     286.369
  H      947.599    -543.987     285.329
  H      950.185    -545.924     282.645
  H      949.839    -548.008     283.951
  H      947.710    -548.034     287.017
  H      946.986    -548.865     284.396
  H      949.047    -549.983     284.024
  H      948.867    -550.925     286.952
  H      950.661    -552.023     285.718
  H      951.246    -550.466     285.059
  P      947.367    -551.887     283.126
  C      946.004    -550.396     281.431
  O      946.474    -550.608     282.753
  O      946.300    -553.054     283.402
  O      948.440    -552.246     282.163
  H      945.935    -553.008     284.323
  H      945.432    -549.493     281.397
  H      945.388    -551.220     281.135
  H      946.837    -550.316     280.765

 6  7  8  9  10  11  12  13  14  15  16  27  31  32  33  34  35 0
 6-311+G(2d,p)
 ****
 36  37 0
 6-311+G(2d,p)
 ****
 1  2  3  4  5  17  18  19  20  21  22  23  24  25 0
 3-21G
 ****
 26  28  29  30  38  39  40  41  42  43  44  45 0
 3-21G
 ****


