%nproc=1
%NoSave
%Mem=1900MB
#P OB98/GEN NMR

erre ene a

0 1
  C       54.460    -198.247     -12.657
  O       54.942    -196.969     -12.277
  P       53.933    -195.726     -12.415
  C       54.549    -194.859     -14.785
  O       54.653    -194.663     -13.380
  C       55.127    -193.669     -15.555
  O       55.011    -193.928     -16.976
  C       54.435    -192.336     -15.257
  O       55.432    -191.315     -15.265
  C       53.519    -192.140     -16.450
  O       53.210    -190.763     -16.658
  C       54.341    -192.798     -17.571
  N       53.509    -193.203     -18.699
  C       53.549    -192.391     -19.839
  O       54.203    -191.348     -19.827
  N       52.810    -192.754     -20.937
  C       52.016    -193.777     -20.867
  N       51.306    -194.098     -21.982
  C       51.851    -194.586     -19.643
  C       52.635    -194.260     -18.617
  O       54.018    -195.035     -10.975
  O       52.533    -196.099     -12.783
  H       53.985    -190.340     -17.092
  H       53.166    -194.624     -10.735
  H       51.147    -195.407     -19.626
  H       52.599    -194.813     -17.686
  H       55.114    -192.108     -17.938
  H       52.580    -192.685     -16.293
  H       53.910    -192.335     -14.296
  H       56.197    -193.600     -15.324
  H       51.426    -193.518     -22.803
  H       53.494    -194.959     -15.054
  H       50.662    -194.876     -22.020
  H       55.062    -195.785     -15.062
  P       55.778    -190.600     -13.871
  C       54.231    -188.594     -14.294
  O       55.567    -189.034     -14.146
  O       57.380    -190.707     -13.848
  O       55.181    -191.157     -12.624
  H       57.718    -190.358     -13.003
  H       54.224    -187.501     -14.337
  H       53.624    -188.920     -13.446
  H       53.813    -188.985     -15.227
  H       55.231    -198.976     -12.515
  H       54.173    -198.228     -13.688
  H       53.613    -198.502     -12.056

 3  4  5  6  7  8  9  10  11  12  13  21  23  27  28  29  30  32 0
 6-311+G(2d,p)
 ****
 34  35 0
 6-311+G(2d,p)
 ****
 1  2  14  15  16  17  18  19  20  22  24  25  26 0
 3-21G
 ****
 31  33  36  37  38  39  40  41  42  43  44  45  46 0
 3-21G
 ****


