%nproc=1
%NoSave
%Mem=1900MB
#P OB98/GEN NMR

erre ene a

0 1
  C      -77.944     -81.359     -56.854
  O      -77.486     -80.494     -57.897
  P      -77.438     -81.094     -59.386
  C      -77.399     -78.677     -60.381
  O      -76.780     -79.949     -60.300
  C      -76.913     -77.761     -59.253
  O      -75.456     -77.809     -59.173
  C      -77.323     -76.293     -59.407
  O      -77.606     -75.799     -58.090
  C      -76.067     -75.642     -59.955
  O      -76.042     -74.243     -59.713
  C      -74.989     -76.445     -59.219
  N      -73.678     -76.347     -59.853
  C      -72.710     -75.606     -59.187
  O      -72.941     -74.982     -58.153
  N      -71.476     -75.565     -59.777
  C      -71.147     -76.117     -60.982
  O      -70.024     -76.051     -61.466
  C      -72.243     -76.793     -61.694
  C      -73.438     -76.873     -61.105
  O      -78.984     -81.081     -59.782
  O      -76.774     -82.429     -59.454
  H      -79.467     -80.313     -59.434
  H      -75.123     -73.920     -59.799
  H      -70.750     -75.059     -59.295
  H      -72.036     -77.192     -62.678
  H      -74.271     -77.343     -61.611
  H      -74.897     -76.099     -58.181
  H      -76.001     -75.809     -61.036
  H      -78.199     -76.161     -60.049
  H      -77.300     -78.157     -58.305
  H      -78.485     -78.787     -60.302
  H      -77.193     -78.238     -61.364
  P      -79.128     -75.413     -57.733
  C      -78.458     -75.784     -55.231
  O      -79.162     -75.018     -56.183
  O      -79.796     -76.871     -57.747
  O      -79.782     -74.469     -58.687
  H      -79.282     -77.530     -57.252
  H      -78.413     -75.224     -54.294
  H      -77.437     -75.987     -55.563
  H      -78.982     -76.726     -55.052
  H      -77.925     -80.835     -55.922
  H      -77.305     -82.215     -56.795
  H      -78.944     -81.674     -57.066

 3  4  5  6  7  8  9  10  11  12  13  24  28  29  30  31  32 0
 6-311+G(2d,p)
 ****
 33  34 0
 6-311+G(2d,p)
 ****
 1  2  14  15  16  17  18  19  20  21  22  23  25  26  27 0
 3-21G
 ****
 35  36  37  38  39  40  41  42  43  44  45 0
 3-21G
 ****


