%nproc=1
%NoSave
%Mem=1900MB
#P OB98/GEN NMR

erre ene a

0 1
  C     -133.729     433.331     141.386
  O     -133.020     434.449     141.878
  H     -133.073     432.453     141.356
  H     -134.566     433.119     142.055
  H     -134.121     433.539     140.387
  P     -131.734     434.903     141.030
  C     -129.647     433.378     141.186
  O     -130.942     433.559     140.635
  C     -128.928     432.225     140.481
  O     -128.720     432.604     139.094
  C     -127.562     431.868     141.092
  O     -127.472     430.457     141.331
  C     -126.561     432.239     140.005
  O     -125.440     431.369     139.967
  C     -127.402     432.161     138.736
  N     -124.064     432.202     134.887
  C     -124.672     431.180     135.530
  N     -125.632     431.236     136.478
  C     -125.972     432.518     136.731
  C     -125.455     433.659     136.141
  C     -124.446     433.469     135.189
  N     -123.783     434.510     134.573
  N     -126.049     434.793     136.666
  C     -126.879     434.341     137.593
  N     -126.855     432.972     137.676
  O     -130.791     435.584     142.137
  O     -132.027     435.841     139.908
  H     -124.907     431.553     140.765
  H     -130.653     436.519     141.892
  H     -124.345     430.183     135.248
  H     -127.483     434.957     138.250
  H     -127.490     431.128     138.367
  H     -126.209     433.261     140.183
  H     -127.361     432.410     142.019
  H     -129.593     431.349     140.482
  H     -129.727     433.142     142.261
  H     -122.987     434.288     133.995
  H     -123.977     435.451     134.884
  H     -129.079     434.311     141.074
  P     -128.406     429.882     142.512
  C     -127.132     430.065     144.782
  O     -128.048     430.679     143.866
  O     -127.816     428.413     142.758
  O     -129.856     429.839     142.167
  H     -128.525     427.749     142.655
  H     -126.991     430.705     145.628
  H     -126.193     429.906     144.295
  H     -127.528     429.126     145.107

 6  7  8  9  10  11  12  13  14  15  25  28  32  33  34  35 0
 6-311+G(2d,p)
 ****
 36  39  40 0
 6-311+G(2d,p)
 ****
 1  2  3  4  5  16  17  18  19  20  21  22  23  24 0
 3-21G
 ****
 26  27  29  30  31  37  38  41  42  43  44  45  46  47  48 0
 3-21G
 ****


