%nproc=1
%NoSave
%Mem=1900MB
#P OB98/GEN NMR

erre ene a

0 1
  C      -22.137    -913.011     621.809
  O      -22.440    -912.257     622.992
  P      -22.923    -913.098     624.268
  C      -20.753    -912.780     625.704
  O      -21.612    -913.680     624.988
  C      -19.602    -913.540     626.367
  O      -18.905    -914.356     625.417
  C      -18.532    -912.642     626.964
  O      -18.914    -912.133     628.250
  C      -17.371    -913.602     627.110
  O      -17.530    -914.368     628.310
  C      -17.537    -914.502     625.874
  N      -12.829    -914.993     624.055
  C      -13.387    -915.501     625.206
  N      -12.573    -916.270     625.987
  N      -14.613    -915.281     625.579
  C      -15.320    -914.513     624.688
  C      -14.859    -913.935     623.519
  C      -13.503    -914.178     623.132
  O      -12.938    -913.726     622.125
  N      -15.885    -913.248     622.882
  C      -16.920    -913.405     623.656
  N      -16.624    -914.157     624.783
  O      -23.605    -914.402     623.630
  O      -23.872    -912.353     625.152
  H      -16.804    -915.018     628.347
  H      -24.279    -914.774     624.224
  H      -11.850    -915.193     623.817
  H      -17.900    -913.011     623.464
  H      -17.380    -915.568     626.118
  H      -16.399    -913.098     627.181
  H      -11.647    -916.541     625.738
  H      -18.266    -911.808     626.278
  H      -12.990    -916.674     626.830
  H      -20.016    -914.190     627.141
  H      -21.340    -912.253     626.479
  H      -20.379    -912.011     625.011
  P      -19.595    -910.657     628.295
  C      -21.744    -911.679     629.363
  O      -21.185    -910.907     628.315
  O      -19.299    -910.080     626.810
  O      -19.058    -909.757     629.361
  H      -19.221    -909.128     626.828
  H      -21.301    -911.441     630.328
  H      -21.574    -912.765     629.142
  H      -22.813    -911.513     629.392
  H      -21.828    -912.345     621.031
  H      -23.008    -913.547     621.495
  H      -21.349    -913.704     622.020

 3  4  5  6  7  8  9  10  11  12  23  26  30  31  33  0
 6-311+G(2d,p)
 ****
 35  36  37  38 0
 6-311+G(2d,p)
 ****
 1  2  13  14  15  16  17  18  19  20  21  22  24  25  27  28  29 0
 3-21G
 ****
 32  34  39  40  41  42  43  44  45  46  47  48  49 0
 3-21G
 ****


