%nproc=1
%NoSave
%Mem=1900MB
#P OB98/GEN NMR

erre ene a

0 1
  C     1466.684      86.689     760.116
  O     1467.537      87.753     760.498
  H     1467.014      85.783     760.640
  H     1466.756      86.522     759.043
  H     1465.653      86.899     760.390
  P     1467.071      89.238     760.106
  C     1468.548      89.656     758.007
  O     1467.248      89.376     758.509
  C     1468.469      90.206     756.578
  O     1469.795      90.568     756.149
  C     1467.888      89.208     755.563
  O     1467.065      89.925     754.626
  C     1469.120      88.690     754.838
  O     1468.820      88.218     753.523
  C     1470.037      89.920     754.881
  N     1473.337      87.548     751.899
  C     1472.001      87.824     751.685
  N     1471.440      87.430     750.538
  N     1471.258      88.472     752.565
  C     1471.939      88.849     753.670
  C     1473.260      88.622     753.986
  C     1474.061      87.904     753.028
  O     1475.244      87.605     753.154
  N     1473.572      89.155     755.202
  C     1472.463      89.680     755.652
  N     1471.437      89.540     754.736
  O     1468.245      90.152     760.685
  O     1465.746      89.648     760.641
  H     1469.636      87.772     753.199
  H     1467.896      90.720     761.407
  H     1473.859      87.050     751.196
  H     1472.321      90.184     756.591
  H     1469.817      90.617     754.070
  H     1469.556      87.851     755.418
  H     1471.974      86.974     749.804
  H     1467.311      88.407     756.030
  H     1470.473      87.659     750.348
  H     1467.873      91.136     756.596
  H     1469.131      88.718     758.012
  H     1469.039      90.377     758.658
  P     1465.485      89.855     754.876
  C     1464.897      88.291     752.903
  O     1464.938      88.463     754.306
  O     1464.888      90.929     753.844
  O     1465.040      90.158     756.275
  H     1464.600      91.731     754.335
  H     1464.512      87.319     752.674
  H     1465.885      88.387     752.503
  H     1464.263      89.037     752.471

 6  7  8  9  10  11  12  13  14  15  26  29  33  34 0
 6-311+G(2d,p)
 ****
 36  38  39  40  41 0
 6-311+G(2d,p)
 ****
 1  2  3  4  5  16  17  18  19  20  21  22  23  24  25 0
 3-21G
 ****
 27  28  30  31  32  35  37  42  43  44  45  46  47 0
 3-21G
 ****
 48  49 0
 3-21G
 ****


