%nproc=1
%NoSave
%Mem=1900MB
#P OB98/GEN NMR

erre ene a

0 1
  C       18.591      -7.079     -23.763
  O       17.434      -7.535     -23.093
  H       18.420      -6.069     -24.144
  H       19.421      -7.050     -23.052
  H       18.855      -7.749     -24.586
  P       16.174      -7.943     -23.998
  C       15.339      -5.503     -24.297
  O       15.853      -6.669     -24.925
  C       14.981      -4.448     -25.342
  O       14.145      -5.069     -26.359
  C       14.220      -3.237     -24.782
  O       14.686      -2.060     -25.448
  C       12.785      -3.505     -25.200
  O       12.012      -2.316     -25.308
  C       12.991      -4.226     -26.528
  N        8.325      -3.905     -28.519
  C        9.371      -3.053     -28.532
  N       10.604      -3.241     -28.021
  C       10.724      -4.479     -27.511
  C        9.750      -5.458     -27.432
  C        8.489      -5.125     -27.954
  N        7.397      -5.958     -27.884
  N       10.243      -6.576     -26.786
  C       11.482      -6.264     -26.460
  N       11.817      -5.007     -26.875
  O       14.975      -7.946     -22.936
  O       16.290      -9.246     -24.714
  H       11.112      -2.550     -25.607
  H       14.913      -8.822     -22.515
  H        9.193      -2.091     -29.005
  H       12.162      -6.894     -25.903
  H       13.186      -3.536     -27.358
  H       12.306      -4.162     -24.465
  H       14.323      -3.113     -23.698
  H       15.903      -4.126     -25.840
  H       16.102      -5.094     -23.627
  H        6.507      -5.592     -28.187
  H        7.474      -6.823     -27.370
  H       14.457      -5.769     -23.707
  P       15.897      -1.258     -24.769
  C       14.359      -0.513     -22.805
  O       15.591      -1.102     -23.205
  O       15.713       0.229     -25.332
  O       17.246      -1.808     -25.099
  H       16.579       0.661     -25.436
  H       14.309      -0.482     -21.737
  H       13.545      -1.096     -23.184
  H       14.296       0.482     -23.194

 6  7  8  9  10  11  12  13  14  15  25  28  32  33  34  35 0
 6-311+G(2d,p)
 ****
 36  39  40 0
 6-311+G(2d,p)
 ****
 1  2  3  4  5  16  17  18  19  20  21  22  23  24 0
 3-21G
 ****
 26  27  29  30  31  37  38  41  42  43  44  45  46  47 0
 3-21G
 ****
 48 0
 3-21G
 ****


