%nproc=1
%NoSave
%Mem=1900MB
#P OB98/GEN NMR

erre ene a

0 1
  C     -343.914     882.554     697.199
  O     -342.865     883.328     696.583
  P     -342.168     882.920     695.190
  C     -339.701     883.678     694.988
  O     -341.072     884.036     694.845
  C     -338.833     884.918     695.207
  O     -339.223     885.974     694.298
  C     -338.940     885.553     696.582
  O     -338.284     884.802     697.580
  C     -338.319     886.927     696.328
  O     -336.890     886.882     696.419
  C     -338.744     887.211     694.858
  N     -339.740     888.259     694.751
  C     -339.330     889.454     694.160
  O     -338.150     889.620     693.830
  N     -340.264     890.455     693.965
  C     -341.463     890.302     694.420
  N     -342.350     891.311     694.181
  C     -341.901     889.113     695.172
  C     -340.999     888.141     695.300
  O     -343.138     882.657     694.085
  O     -341.310     881.611     695.523
  H     -341.197     881.078     694.704
  H     -336.584     886.232     695.744
  H     -342.906     889.045     695.570
  H     -341.243     887.217     695.829
  H     -337.869     887.478     694.261
  H     -338.667     887.679     697.035
  H     -340.000     885.674     696.835
  H     -337.792     884.633     694.989
  H     -342.006     892.108     693.659
  H     -339.385     883.166     694.071
  H     -343.318     891.285     694.478
  H     -339.599     882.977     695.826
  P     -339.129     884.440     698.899
  C     -337.748     884.605     701.087
  O     -338.116     883.819     699.976
  O     -340.023     883.191     698.451
  O     -339.979     885.564     699.415
  H     -340.922     883.274     698.834
  H     -337.500     883.929     701.927
  H     -338.565     885.260     701.412
  H     -336.878     885.209     700.851
  H     -344.214     883.023     698.112
  H     -343.555     881.568     697.406
  H     -344.751     882.496     696.535

 3  4  5  6  7  8  9  10  11  12  13  24  27  28  29  30  32 0
 6-311+G(2d,p)
 ****
 34  35 0
 6-311+G(2d,p)
 ****
 1  2  14  15  16  17  18  19  20  21  22  23  25  26 0
 3-21G
 ****
 31  33  36  37  38  39  40  41  42  43  44  45  46 0
 3-21G
 ****


