%nproc=1
%NoSave
%Mem=1900MB
#P OB98/GEN NMR

erre ene a

0 1
  C       84.495     150.119    -209.981
  O       83.107     150.286    -210.188
  H       85.015     150.313    -210.923
  H       84.703     149.093    -209.670
  H       84.861     150.819    -209.226
  P       82.176     150.249    -208.882
  C       80.162     149.640    -210.403
  O       80.918     149.320    -209.245
  C       79.787     148.368    -211.157
  O       80.925     147.866    -211.895
  C       79.323     147.223    -210.261
  O       77.952     147.351    -209.911
  C       79.546     146.037    -211.186
  O       78.487     145.976    -212.163
  C       80.872     146.412    -211.863
  N       85.018     143.529    -212.293
  C       84.026     143.801    -213.216
  N       84.151     143.210    -214.424
  N       83.000     144.574    -212.977
  C       82.999     145.085    -211.723
  C       83.926     144.894    -210.722
  C       85.059     144.043    -211.003
  O       85.977     143.788    -210.231
  N       83.590     145.588    -209.590
  C       82.455     146.183    -209.895
  N       82.049     145.905    -211.178
  O       81.543     151.722    -208.836
  O       82.874     149.920    -207.606
  H       78.772     145.343    -212.847
  H       81.452     151.996    -207.903
  H       85.780     142.917    -212.526
  H       81.892     146.823    -209.231
  H       80.926     146.058    -212.898
  H       79.549     145.085    -210.656
  H       84.889     142.564    -214.657
  H       79.961     147.121    -209.376
  H       83.455     143.420    -215.128
  H       79.010     148.626    -211.888
  H       80.761     150.283    -211.057
  H       79.259     150.179    -210.102
  P       77.423     146.498    -208.655
  C       75.109     146.568    -209.834
  O       76.081     145.776    -209.158
  O       76.883     147.626    -207.656
  O       78.442     145.621    -208.014
  H       76.878     147.287    -206.741
  H       74.276     145.954    -210.107
  H       75.544     146.991    -210.715
  H       74.777     147.353    -209.188

 6  7  8  9  10  11  12  13  14  15  26  29  33  34 0
 6-311+G(2d,p)
 ****
 36  38  39  40  41 0
 6-311+G(2d,p)
 ****
 1  2  3  4  5  16  17  18  19  20  21  22  23  24  25 0
 3-21G
 ****
 27  28  30  31  32  35  37  42  43  44  45  46  47 0
 3-21G
 ****
 48  49 0
 3-21G
 ****


