%nproc=1
%NoSave
%Mem=1900MB
#P OB98/GEN NMR

erre ene a

0 1
  C     -124.033      65.366     130.764
  O     -124.768      65.258     129.557
  P     -125.874      66.386     129.265
  C     -124.570      67.830     127.536
  O     -125.625      66.906     127.770
  C     -124.357      68.017     126.035
  O     -123.565      66.935     125.509
  C     -125.637      68.022     125.210
  O     -126.328      69.253     125.342
  C     -125.074      67.753     123.820
  O     -124.521      68.959     123.269
  C     -123.950      66.746     124.120
  N     -125.872      63.385     120.770
  C     -125.611      64.708     120.671
  N     -125.120      65.538     121.614
  C     -124.887      64.874     122.757
  C     -125.124      63.535     123.013
  C     -125.639      62.772     121.953
  N     -125.907      61.424     122.059
  N     -124.784      63.215     124.309
  C     -124.338      64.341     124.825
  N     -124.366      65.368     123.923
  O     -125.391      67.612     130.169
  O     -127.282      65.981     129.574
  H     -123.709      69.162     123.775
  H     -126.155      68.115     130.512
  H     -125.823      65.159     119.705
  H     -123.980      64.459     125.839
  H     -123.059      66.912     123.504
  H     -125.825      67.384     123.114
  H     -126.292      67.196     125.515
  H     -123.804      68.954     125.886
  H     -123.644      67.449     127.978
  H     -126.412      60.989     121.302
  H     -125.867      61.002     122.978
  H     -124.817      68.781     128.018
  P     -127.883      69.187     125.732
  C     -127.952      71.486     126.876
  O     -128.341      70.727     125.745
  O     -127.812      68.831     127.288
  O     -128.702      68.271     124.890
  H     -127.187      69.404     127.766
  H     -128.277      72.519     126.731
  H     -126.864      71.469     126.987
  H     -128.427      71.088     127.776
  H     -123.336      64.557     130.831
  H     -124.705      65.328     131.596
  H     -123.502      66.295     130.777

 3  4  5  6  7  8  9  10  11  12  22  25  29  30  31  32 0
 6-311+G(2d,p)
 ****
 33  36  37 0
 6-311+G(2d,p)
 ****
 1  2  13  14  15  16  17  18  19  20  21  23  24  26 0
 3-21G
 ****
 27  28  34  35  38  39  40  41  42  43  44  45  46  47  48 0
 3-21G
 ****


