%nproc=1
%NoSave
%Mem=1900MB
#P OB98/GEN NMR

erre ene a

0 1
  C       79.063      78.343      11.948
  O       79.918      77.204      11.797
  P       81.414      77.469      11.277
  C       81.362      76.101       9.043
  O       81.794      76.187      10.393
  C       81.138      74.640       8.658
  O       79.796      74.221       9.007
  C       81.274      74.361       7.168
  O       82.633      74.367       6.763
  C       80.579      73.011       7.064
  O       81.468      71.958       7.468
  C       79.436      73.158       8.092
  N       78.140      73.403       7.474
  C       77.323      72.287       7.318
  O       77.664      71.153       7.650
  N       76.102      72.515       6.745
  C       75.641      73.719       6.296
  O       74.531      73.865       5.800
  C       76.567      74.852       6.443
  C       77.756      74.647       7.015
  O       82.247      77.285      12.628
  O       81.571      78.793      10.608
  H       81.878      76.601      13.212
  H       81.825      72.218       8.341
  H       75.490      71.721       6.635
  H       76.245      75.817       6.073
  H       78.455      75.470       7.129
  H       79.356      72.249       8.700
  H       80.248      72.788       6.044
  H       80.714      75.112       6.596
  H       81.849      74.025       9.225
  H       82.118      76.534       8.382
  H       80.446      76.687       8.926
  P       82.969      75.074       5.358
  C       84.128      72.998       4.274
  O       84.247      74.315       4.763
  O       83.547      76.483       5.852
  O       81.793      75.175       4.443
  H       84.165      76.400       6.595
  H       84.976      72.791       3.615
  H       83.204      72.862       3.708
  H       84.152      72.293       5.109
  H       78.103      78.025      12.298
  H       78.953      78.834      11.004
  H       79.494      79.021      12.655

 3  4  5  6  7  8  9  10  11  12  13  24  28  29  30  31  32 0
 6-311+G(2d,p)
 ****
 33  34 0
 6-311+G(2d,p)
 ****
 1  2  14  15  16  17  18  19  20  21  22  23  25  26  27 0
 3-21G
 ****
 35  36  37  38  39  40  41  42  43  44  45 0
 3-21G
 ****


