%nproc=1
%NoSave
%Mem=1900MB
#P OB98/GEN NMR

erre ene a

0 1
  C        0.309      58.570      13.551
  O        1.379      59.487      13.486
  P        1.168      60.977      12.939
  C        2.094      60.282      10.636
  O        1.003      60.865      11.342
  C        1.750      60.144       9.148
  O        0.759      59.078       8.994
  C        1.153      61.434       8.547
  O        1.807      61.893       7.363
  C       -0.318      61.081       8.386
  O       -1.003      61.887       7.447
  C       -0.246      59.579       8.089
  N       -1.534      58.912       8.263
  C       -2.373      58.854       7.153
  O       -2.098      59.316       6.049
  N       -3.604      58.292       7.360
  C       -4.112      57.897       8.562
  O       -5.260      57.493       8.691
  C       -3.193      58.017       9.705
  C       -1.959      58.488       9.507
  O        2.188      61.972      13.381
  O       -0.327      61.326      13.401
  H       -0.590      62.771       7.452
  H       -1.013      60.730      13.052
  H       -4.223      58.245       6.565
  H       -3.573      57.720      10.673
  H       -1.260      58.588      10.332
  H        0.107      59.390       7.074
  H       -0.807      61.237       9.357
  H        1.251      62.273       9.246
  H        2.663      59.849       8.620
  H        2.293      59.292      11.051
  H        2.996      60.886      10.780
  P        2.136      63.424       7.027
  C        0.328      63.606       5.166
  O        0.824      64.090       6.397
  O        3.393      63.650       6.256
  O        2.232      64.109       8.474
  H        2.846      64.866       8.435
  H       -0.191      64.423       4.652
  H       -0.389      62.803       5.357
  H        1.133      63.237       4.524
  H        0.661      57.639      13.943
  H       -0.089      58.417      12.570
  H       -0.456      58.959      14.190

 3  4  5  6  7  8  9  10  11  12  13  23  28  29  30  31  32 0
 6-311+G(2d,p)
 ****
 33  34 0
 6-311+G(2d,p)
 ****
 1  2  14  15  16  17  18  19  20  21  22  24  25  26  27 0
 3-21G
 ****
 35  36  37  38  39  40  41  42  43  44  45 0
 3-21G
 ****


