%nproc=1
%NoSave
%Mem=1900MB
#P OB98/GEN NMR

erre ene a

0 1
  C      243.363    -172.763      22.046
  O      244.749    -172.640      21.771
  P      245.847    -173.470      22.601
  C      246.907    -171.241      23.374
  O      246.340    -172.480      23.762
  C      248.310    -171.455      22.802
  O      248.749    -170.220      22.176
  C      249.364    -171.848      23.843
  O      250.280    -172.749      23.203
  C      250.043    -170.529      24.154
  O      251.344    -170.695      24.700
  C      250.010    -169.856      22.776
  N      250.155    -168.405      22.858
  C      251.447    -167.881      22.890
  O      252.430    -168.620      22.873
  N      251.603    -166.517      22.938
  C      250.562    -165.752      23.038
  N      250.765    -164.407      23.022
  C      249.183    -166.269      23.117
  C      249.055    -167.587      22.998
  O      246.940    -174.059      21.777
  O      244.995    -174.542      23.419
  H      251.253    -171.036      25.610
  H      244.800    -175.361      22.898
  H      248.348    -165.591      23.225
  H      248.081    -168.055      23.022
  H      250.795    -170.269      22.135
  H      249.440    -169.971      24.882
  H      248.932    -172.337      24.720
  H      248.249    -172.215      22.011
  H      251.701    -164.089      22.790
  H      246.983    -170.601      24.257
  H      250.020    -163.766      22.769
  H      246.255    -170.746      22.645
  P      250.398    -174.245      23.771
  C      252.127    -173.665      25.618
  O      250.841    -174.158      25.310
  O      251.748    -174.755      23.064
  O      249.274    -175.173      23.442
  H      251.722    -175.725      22.994
  H      252.251    -173.673      26.707
  H      252.240    -172.639      25.264
  H      252.897    -174.301      25.177
  H      242.810    -172.129      21.384
  H      243.173    -172.473      23.058
  H      243.060    -173.779      21.903

 3  4  5  6  7  8  9  10  11  12  13  23  27  28  29  30  32 0
 6-311+G(2d,p)
 ****
 34  35 0
 6-311+G(2d,p)
 ****
 1  2  14  15  16  17  18  19  20  21  22  24  25  26 0
 3-21G
 ****
 31  33  36  37  38  39  40  41  42  43  44  45  46 0
 3-21G
 ****


