%nproc=1
%NoSave
%Mem=1900MB
#P OB98/GEN NMR

erre ene a

0 1
  C      -79.417    -792.475    -401.299
  O      -78.572    -793.593    -401.103
  H      -78.841    -791.569    -401.117
  H      -80.252    -792.505    -400.594
  H      -79.796    -792.453    -402.324
  P      -79.136    -795.058    -401.428
  C      -79.165    -795.374    -403.986
  O      -79.895    -794.955    -402.838
  C      -80.130    -795.832    -405.076
  O      -80.828    -797.030    -404.650
  C      -81.215    -794.818    -405.415
  O      -80.690    -793.766    -406.202
  C      -82.229    -795.712    -406.116
  O      -81.832    -795.974    -407.470
  C      -82.133    -797.007    -405.274
  N      -83.198    -797.102    -404.266
  C      -84.489    -796.840    -404.711
  O      -84.752    -796.531    -405.868
  N      -85.465    -796.889    -403.751
  C      -85.271    -797.086    -402.417
  O      -86.142    -796.909    -401.571
  C      -83.900    -797.433    -402.023
  C      -82.940    -797.414    -402.942
  O      -79.915    -795.712    -400.338
  O      -77.819    -795.895    -401.793
  H      -77.562    -796.437    -401.028
  H      -81.772    -795.104    -407.918
  H      -86.397    -796.652    -404.055
  H      -83.717    -797.663    -400.978
  H      -81.913    -797.640    -402.667
  H      -82.198    -797.888    -405.914
  H      -83.221    -795.267    -406.152
  H      -81.669    -794.431    -404.490
  H      -79.542    -796.089    -405.969
  H      -78.509    -796.201    -403.703
  H      -78.551    -794.543    -404.345
  P      -81.555    -792.456    -406.518
  C      -80.690    -790.723    -404.830
  O      -81.729    -791.638    -405.149
  O      -82.822    -792.699    -407.261
  O      -80.560    -791.528    -407.361
  H      -81.003    -791.266    -408.200
  H      -80.913    -790.239    -403.902
  H      -80.611    -789.989    -405.605
  H      -79.764    -791.251    -404.743

 6  7  8  9  10  11  12  13  14  15  16  27  31  32  33  34  35 0
 6-311+G(2d,p)
 ****
 36  37 0
 6-311+G(2d,p)
 ****
 1  2  3  4  5  17  18  19  20  21  22  23  24  25 0
 3-21G
 ****
 26  28  29  30  38  39  40  41  42  43  44  45 0
 3-21G
 ****


