%nproc=1
%NoSave
%Mem=1900MB
#P OB98/GEN NMR

erre ene a

0 1
  C      395.358     272.875      73.561
  O      395.341     271.765      74.450
  P      396.747     271.284      75.066
  C      396.719     273.211      76.807
  O      397.402     272.595      75.721
  C      397.487     273.001      78.111
  O      397.560     271.595      78.422
  C      398.927     273.492      78.083
  O      399.021     274.888      78.312
  C      399.514     272.722      79.252
  O      399.155     273.359      80.490
  C      398.809     271.365      79.131
  N      402.407     267.761      79.596
  C      401.886     268.635      80.486
  N      400.938     269.572      80.279
  C      400.553     269.584      78.995
  C      401.019     268.781      77.966
  C      401.987     267.823      78.306
  N      402.497     266.915      77.406
  N      400.385     269.089      76.783
  C      399.542     270.052      77.090
  N      399.596     270.380      78.415
  O      397.643     271.036      73.762
  O      396.674     270.079      75.936
  H      399.533     274.257      80.465
  H      398.367     270.413      73.967
  H      402.276     268.564      81.496
  H      398.870     270.532      76.391
  H      398.553     270.941      80.105
  H      400.607     272.674      79.223
  H      399.429     273.197      77.155
  H      396.927     273.494      78.913
  H      395.726     272.766      76.904
  H      403.042     266.150      77.766
  H      402.038     266.833      76.508
  H      396.607     274.278      76.599
  P      400.276     275.649      77.655
  C      399.162     276.696      75.553
  O      399.977     275.664      76.081
  O      401.465     274.589      77.812
  O      400.592     276.962      78.289
  H      402.325     275.049      77.831
  H      399.316     276.742      74.471
  H      399.418     277.662      75.984
  H      398.109     276.472      75.748
  H      394.362     273.083      73.231
  H      395.973     272.646      72.716
  H      395.752     273.731      74.067

 3  4  5  6  7  8  9  10  11  12  22  25  29  30  31  32 0
 6-311+G(2d,p)
 ****
 33  36  37 0
 6-311+G(2d,p)
 ****
 1  2  13  14  15  16  17  18  19  20  21  23  24  26 0
 3-21G
 ****
 27  28  34  35  38  39  40  41  42  43  44  45  46  47  48 0
 3-21G
 ****


