%nproc=1
%NoSave
%Mem=1900MB
#P OB98/GEN NMR

erre ene a

0 1
  C      130.356    -212.033     -98.032
  O      129.863    -212.789     -96.945
  H      129.752    -211.129     -98.131
  H      130.281    -212.606     -98.961
  H      131.396    -211.743     -97.854
  P      130.536    -214.207     -96.622
  C      132.724    -213.437     -95.483
  O      131.432    -214.005     -95.302
  C      133.233    -212.846     -94.162
  O      132.238    -211.903     -93.688
  C      133.437    -213.920     -93.080
  O      134.738    -213.877     -92.494
  C      132.233    -213.723     -92.166
  O      132.438    -214.146     -90.833
  C      131.913    -212.234     -92.325
  N      130.520    -211.895     -92.031
  C      130.284    -210.989     -90.999
  O      131.155    -210.449     -90.322
  N      128.965    -210.710     -90.750
  C      127.888    -211.235     -91.406
  O      126.731    -210.940     -91.140
  C      128.201    -212.206     -92.467
  C      129.481    -212.487     -92.728
  O      131.246    -214.859     -97.761
  O      129.319    -215.104     -96.095
  H      133.086    -213.528     -90.430
  H      129.060    -215.740     -96.789
  H      128.780    -210.044     -90.014
  H      127.371    -212.651     -92.999
  H      129.747    -213.196     -93.506
  H      132.544    -211.634     -91.667
  H      131.395    -214.311     -92.563
  H      133.392    -214.925     -93.516
  H      134.155    -212.288     -94.357
  H      132.641    -212.651     -96.243
  H      133.419    -214.205     -95.838
  P      135.779    -215.085     -92.485
  C      137.775    -214.068     -93.865
  O      137.258    -214.487     -92.610
  O      135.445    -216.242     -93.367
  O      135.736    -215.613     -90.959
  H      135.905    -216.578     -90.996
  H      138.772    -213.702     -93.736
  H      137.158    -213.290     -94.263
  H      137.784    -214.897     -94.542

 6  7  8  9  10  11  12  13  14  15  16  26  31  32  33  34  35 0
 6-311+G(2d,p)
 ****
 36  37 0
 6-311+G(2d,p)
 ****
 1  2  3  4  5  17  18  19  20  21  22  23  24  25 0
 3-21G
 ****
 27  28  29  30  38  39  40  41  42  43  44  45 0
 3-21G
 ****


