%nproc=1
%NoSave
%Mem=1900MB
#P OB98/GEN NMR

erre ene a

0 1
  C      459.971    -195.433    2196.405
  O      460.013    -194.983    2195.052
  P      460.258    -196.009    2193.807
  C      457.954    -195.770    2192.650
  O      458.818    -196.627    2193.368
  C      456.604    -196.460    2192.378
  O      456.836    -197.754    2191.754
  C      455.730    -196.726    2193.631
  O      454.368    -196.466    2193.233
  C      455.978    -198.189    2193.899
  O      455.004    -198.794    2194.715
  C      456.032    -198.739    2192.487
  N      456.546    -200.092    2192.277
  C      455.683    -201.154    2192.428
  O      454.498    -200.990    2192.825
  N      456.146    -202.417    2192.244
  C      457.374    -202.676    2191.945
  N      457.785    -203.924    2191.740
  C      458.364    -201.518    2191.750
  C      457.862    -200.281    2191.952
  O      461.303    -197.025    2194.053
  O      460.665    -195.074    2192.575
  H      461.325    -195.521    2192.012
  H      455.260    -199.682    2194.974
  H      459.389    -201.737    2191.460
  H      458.537    -199.440    2191.825
  H      454.997    -198.696    2192.052
  H      456.949    -198.281    2194.400
  H      455.955    -196.071    2194.470
  H      456.049    -195.862    2191.640
  H      457.105    -204.661    2191.865
  H      458.416    -195.494    2191.691
  H      458.744    -204.167    2191.474
  H      457.801    -194.833    2193.258
  P      453.495    -195.361    2193.954
  C      453.528    -193.390    2192.277
  O      454.013    -193.910    2193.495
  O      454.087    -195.450    2195.473
  O      452.012    -195.560    2194.017
  H      453.402    -195.126    2196.086
  H      453.269    -192.303    2192.426
  H      452.630    -193.894    2191.913
  H      454.278    -193.446    2191.521
  H      459.800    -194.599    2197.053
  H      460.903    -195.895    2196.656
  H      459.178    -196.142    2196.521

 3  4  5  6  7  8  9  10  11  12  13  24  27  28  29  30  32 0
 6-311+G(2d,p)
 ****
 34  35 0
 6-311+G(2d,p)
 ****
 1  2  14  15  16  17  18  19  20  21  22  23  25  26 0
 3-21G
 ****
 31  33  36  37  38  39  40  41  42  43  44  45  46 0
 3-21G
 ****


