%nproc=1
%NoSave
%Mem=1900MB
#P OB98/GEN NMR

erre ene a

0 1
  C      113.593     393.296       5.852
  O      114.348     392.395       6.637
  H      112.578     393.385       6.250
  H      114.072     394.279       5.886
  H      113.559     392.956       4.813
  P      113.818     390.883       6.715
  C      112.733     390.104       8.944
  O      112.609     390.897       7.771
  C      113.473     390.894      10.019
  O      112.767     392.121      10.312
  C      113.606     390.168      11.353
  O      114.677     389.239      11.353
  C      113.891     391.337      12.280
  O      115.263     391.749      12.134
  C      112.951     392.414      11.724
  N      110.493     393.358      16.113
  C      111.803     393.400      15.784
  N      112.377     393.129      14.595
  C      111.447     392.788      13.687
  C      110.081     392.693      13.878
  C      109.599     393.005      15.160
  N      108.267     392.952      15.503
  N      109.456     392.276      12.718
  C      110.427     392.152      11.839
  N      111.652     392.441      12.379
  O      114.982     390.116       7.504
  O      113.496     390.240       5.406
  H      115.424     392.431      12.815
  H      114.928     389.156       7.332
  H      112.478     393.684      16.589
  H      110.296     391.861      10.804
  H      113.373     393.422      11.799
  H      113.741     391.098      13.333
  H      112.663     389.696      11.653
  H      114.460     391.166       9.623
  H      113.301     389.198       8.709
  H      108.050     393.011      16.488
  H      107.618     392.546      14.844
  H      111.737     389.823       9.297
  P      114.644     388.079      12.460
  C      116.393     388.444      14.352
  O      115.107     388.766      13.831
  O      115.892     387.161      12.063
  O      113.366     387.306      12.518
  H      115.760     386.243      12.366
  H      116.552     388.979      15.265
  H      117.145     388.718      13.642
  H      116.448     387.392      14.541

 6  7  8  9  10  11  12  13  14  15  25  28  32  33  34  35 0
 6-311+G(2d,p)
 ****
 36  39  40 0
 6-311+G(2d,p)
 ****
 1  2  3  4  5  16  17  18  19  20  21  22  23  24 0
 3-21G
 ****
 26  27  29  30  31  37  38  41  42  43  44  45  46  47 0
 3-21G
 ****
 48 0
 3-21G
 ****


