%nproc=1
%NoSave
%Mem=1900MB
#P OB98/GEN NMR

erre ene a

0 1
  C      -28.302      11.907      40.735
  O      -28.678      13.288      40.812
  P      -29.373      13.911      42.116
  C      -27.534      13.217      43.780
  O      -28.231      14.301      43.173
  C      -28.023      12.956      45.208
  O      -27.569      11.673      45.678
  C      -27.544      13.976      46.236
  O      -28.309      15.163      46.158
  C      -27.707      13.189      47.533
  O      -29.074      13.224      47.975
  C      -27.323      11.770      47.093
  N      -24.198       9.606      50.513
  C      -25.540       9.756      50.484
  N      -26.300      10.350      49.539
  C      -25.534      10.796      48.529
  C      -24.154      10.719      48.421
  C      -23.473      10.090      49.478
  N      -22.105       9.953      49.512
  N      -23.721      11.310      47.254
  C      -24.823      11.721      46.658
  N      -25.943      11.434      47.388
  O      -30.472      13.074      42.684
  O      -29.935      15.333      41.636
  H      -29.586      12.642      47.384
  H      -30.712      15.577      42.173
  H      -26.076       9.345      51.336
  H      -24.861      12.225      45.701
  H      -27.954      11.013      47.573
  H      -27.090      13.582      48.347
  H      -26.483      14.197      46.078
  H      -29.120      12.925      45.185
  H      -26.466      13.460      43.797
  H      -21.690       9.519      50.321
  H      -21.554      10.352      48.766
  H      -27.681      12.321      43.166
  P      -27.591      16.565      45.870
  C      -26.674      16.183      43.505
  O      -27.666      16.818      44.289
  O      -26.239      16.733      46.477
  O      -28.625      17.644      46.447
  H      -28.133      18.431      46.748
  H      -25.747      16.760      43.554
  H      -27.017      16.147      42.468
  H      -26.492      15.163      43.855
  H      -27.858      11.711      39.781
  H      -29.170      11.294      40.858
  H      -27.597      11.686      41.509

 3  4  5  6  7  8  9  10  11  12  22  25  29  30  31  32 0
 6-311+G(2d,p)
 ****
 33  36  37 0
 6-311+G(2d,p)
 ****
 1  2  13  14  15  16  17  18  19  20  21  23  24  26 0
 3-21G
 ****
 27  28  34  35  38  39  40  41  42  43  44  45  46  47  48 0
 3-21G
 ****


