%nproc=1
%NoSave
%Mem=1900MB
#P OB98/GEN NMR

erre ene a

0 1
  C       41.837    -171.736     228.039
  O       41.234    -170.899     227.071
  H       42.834    -171.349     228.267
  H       41.933    -172.752     227.647
  H       41.243    -171.743     228.957
  P       39.749    -171.293     226.613
  C       38.648    -173.451     225.653
  O       39.836    -172.805     226.084
  C       38.959    -174.878     225.183
  O       39.743    -174.804     223.957
  C       39.782    -175.699     226.190
  O       39.447    -177.085     226.006
  C       41.201    -175.450     225.701
  O       42.103    -176.367     226.278
  C       40.967    -175.537     224.194
  N       45.810    -176.157     222.677
  C       44.993    -176.936     223.416
  N       43.712    -176.709     223.769
  C       43.274    -175.547     223.258
  C       43.989    -174.651     222.478
  C       45.322    -174.989     222.189
  N       46.160    -174.193     221.444
  N       43.205    -173.560     222.142
  C       42.037    -173.799     222.710
  N       42.037    -174.981     223.399
  O       39.535    -170.433     225.280
  O       38.677    -171.039     227.620
  H       43.027    -176.152     226.025
  H       39.071    -169.601     225.491
  H       45.429    -177.867     223.775
  H       41.170    -173.151     222.663
  H       40.809    -176.568     223.863
  H       41.541    -174.450     225.987
  H       39.607    -175.415     227.229
  H       38.018    -175.382     224.928
  H       38.218    -172.873     224.828
  H       37.931    -173.488     226.480
  H       47.108    -174.502     221.297
  H       45.816    -173.314     221.090
  P       37.970    -177.590     226.392
  C       36.858    -178.241     228.671
  O       38.017    -178.258     227.851
  O       37.800    -178.876     225.446
  O       36.868    -176.610     226.155
  H       36.853    -179.009     225.245
  H       37.071    -178.727     229.600
  H       36.062    -178.755     228.174
  H       36.567    -177.228     228.857

 6  7  8  9  10  11  12  13  14  15  25  28  32  33  34  35 0
 6-311+G(2d,p)
 ****
 36  37  40 0
 6-311+G(2d,p)
 ****
 1  2  3  4  5  16  17  18  19  20  21  22  23  24 0
 3-21G
 ****
 26  27  29  30  31  38  39 41  42  43  44  45  46  47  48 0
 3-21G
 ****


