%nproc=1
%NoSave
%Mem=1900MB
#P OB98/GEN NMR

erre ene a

0 1
  C     -124.935     -20.117      34.053
  O     -124.181     -19.491      33.032
  H     -124.829     -19.538      34.975
  H     -124.571     -21.132      34.240
  H     -125.992     -20.150      33.777
  P     -124.050     -20.239      31.620
  C     -122.936     -22.431      30.814
  O     -123.204     -21.566      31.913
  C     -121.691     -23.266      31.096
  O     -120.518     -22.427      31.106
  C     -121.723     -23.951      32.455
  O     -122.582     -25.073      32.434
  C     -120.252     -24.255      32.656
  O     -119.856     -25.425      31.930
  C     -119.591     -22.987      32.065
  N     -119.236     -22.008      33.086
  C     -118.146     -22.336      33.900
  O     -117.541     -23.393      33.734
  N     -117.789     -21.460      34.895
  C     -118.443     -20.353      35.054
  N     -118.037     -19.531      36.059
  C     -119.588     -19.964      34.209
  C     -119.929     -20.830      33.256
  O     -123.542     -19.425      30.469
  O     -125.525     -20.800      31.353
  H     -120.153     -25.280      31.010
  H     -126.058     -20.143      30.869
  H     -120.101     -19.029      34.374
  H     -120.759     -20.620      32.590
  H     -118.682     -23.250      31.509
  H     -120.018     -24.422      33.707
  H     -122.032     -23.240      33.229
  H     -121.575     -23.998      30.286
  H     -117.253     -19.844      36.621
  H     -122.776     -21.797      29.936
  H     -118.413     -18.610      36.220
  H     -123.793     -23.084      30.618
  P     -123.580     -25.359      33.656
  C     -123.281     -25.742      36.189
  O     -122.634     -25.641      34.924
  O     -124.627     -26.390      33.396
  O     -124.182     -23.909      33.977
  H     -124.841     -23.632      33.294
  H     -122.551     -25.929      36.949
  H     -123.986     -26.546      36.166
  H     -123.791     -24.826      36.403

 6  7  8  9  10  11  12  13  14  15  16  26  30  31  32  33  35 0
 6-311+G(2d,p)
 ****
 37  38 0
 6-311+G(2d,p)
 ****
 1  2  3  4  5  17  18  19  20  21  22  23  24  25 0
 3-21G
 ****
 27  28  29  34  36  39  40  41  42  43  44  45  46 0
 3-21G
 ****


