%nproc=1
%NoSave
%Mem=1900MB
#P OB98/GEN NMR

erre ene a

0 1
  C     -297.675     247.007     -87.577
  O     -296.736     246.567     -86.587
  P     -296.987     245.285     -85.656
  C     -297.990     246.484     -83.604
  O     -298.222     245.575     -84.678
  C     -299.064     246.360     -82.519
  O     -300.369     246.623     -83.066
  C     -299.165     244.985     -81.871
  O     -298.109     244.772     -80.952
  C     -300.554     245.058     -81.245
  O     -300.516     245.739     -79.981
  C     -301.333     245.884     -82.288
  N     -302.182     245.058     -83.135
  C     -303.464     244.780     -82.653
  O     -303.812     245.177     -81.542
  N     -304.313     244.037     -83.437
  C     -303.893     243.552     -84.563
  N     -304.781     242.831     -85.300
  C     -302.520     243.744     -85.065
  C     -301.728     244.501     -84.307
  O     -295.761     244.791     -84.959
  O     -297.554     244.159     -86.645
  H     -301.443     245.838     -79.692
  H     -297.279     243.282     -86.320
  H     -302.201     243.299     -85.994
  H     -300.705     244.701     -84.607
  H     -301.958     246.635     -81.791
  H     -300.986     244.070     -81.063
  H     -299.158     244.210     -82.646
  H     -298.859     247.127     -81.757
  H     -305.717     242.722     -84.930
  H     -298.000     247.501     -84.009
  H     -304.557     242.411     -86.188
  H     -297.001     246.284     -83.180
  P     -296.997     243.663     -81.261
  C     -297.471     242.464     -79.043
  O     -297.394     242.340     -80.452
  O     -295.581     244.106     -81.103
  O     -297.295     243.242     -82.782
  H     -296.458     242.992     -83.210
  H     -298.112     241.669     -78.656
  H     -297.891     243.431     -78.754
  H     -296.471     242.356     -78.615
  H     -297.293     247.876     -88.070
  H     -298.606     247.245     -87.105
  H     -297.828     246.228     -88.295

 3  4  5  6  7  8  9  10  11  12  13  23  27  28  29  30  32 0
 6-311+G(2d,p)
 ****
 34  35 0
 6-311+G(2d,p)
 ****
 1  2  14  15  16  17  18  19  20  21  22  24  25  26 0
 3-21G
 ****
 31  33  36  37  38  39  40  41  42  43  44  45  46 0
 3-21G
 ****


