%nproc=1
%NoSave
%Mem=1900MB
#P OB98/GEN NMR

erre ene a

0 1
  C      170.978     -73.124     312.133
  O      169.942     -72.185     312.341
  H      171.933     -72.589     312.081
  H      170.821     -73.648     311.186
  H      171.026     -73.846     312.953
  P      168.479     -72.716     312.721
  C      168.677     -72.309     315.260
  O      168.037     -71.931     314.051
  C      168.654     -71.155     316.269
  O      169.535     -70.093     315.779
  C      167.257     -70.528     316.478
  O      167.194     -70.071     317.837
  C      167.314     -69.359     315.510
  O      166.281     -68.440     315.738
  C      168.749     -68.884     315.759
  N      169.237     -67.952     314.748
  C      168.864     -66.617     314.876
  O      168.171     -66.182     315.803
  N      169.311     -65.775     313.893
  C      170.067     -66.135     312.814
  O      170.456     -65.333     311.969
  C      170.403     -67.565     312.717
  C      169.983     -68.395     313.675
  O      168.323     -74.198     312.783
  O      167.539     -72.070     311.596
  H      167.373     -72.724     310.892
  H      166.392     -67.648     315.167
  H      169.049     -64.806     313.970
  H      170.987     -67.884     311.859
  H      170.208     -69.455     313.635
  H      168.840     -68.422     316.748
  H      167.198     -69.716     314.483
  H      166.442     -71.231     316.287
  H      169.078     -71.502     317.218
  H      169.714     -72.581     315.031
  H      168.163     -73.182     315.685
  P      166.492     -70.906     319.013
  C      168.547     -72.202     319.878
  O      167.570     -71.214     320.165
  O      165.769     -72.126     318.538
  O      165.467     -69.886     319.710
  H      164.668     -70.375     319.993
  H      169.200     -72.313     320.718
  H      169.115     -71.904     319.022
  H      168.063     -73.135     319.677

 6  7  8  9  10  11  12  13  14  15  16  27  31  32  33  34  35 0
 6-311+G(2d,p)
 ****
 36  37 0
 6-311+G(2d,p)
 ****
 1  2  3  4  5  17  18  19  20  21  22  23  24  25 0
 3-21G
 ****
 26  28  29  30  38  39  40  41  42  43  44  45 0
 3-21G
 ****


