%nproc=1
%NoSave
%Mem=1900MB
#P OB98/GEN NMR

erre ene a

0 1
  C     -301.630     487.949      36.120
  O     -302.429     489.108      35.957
  P     -302.280     490.352      36.957
  C     -300.346     491.618      35.831
  O     -300.735     490.786      36.917
  C     -299.571     492.834      36.334
  O     -300.417     493.596      37.225
  C     -298.306     492.469      37.104
  O     -297.293     493.439      36.823
  C     -298.704     492.605      38.565
  O     -297.564     492.885      39.393
  C     -299.741     493.731      38.488
  N     -301.013     495.319      43.203
  C     -299.963     495.618      42.406
  N     -299.676     495.140      41.177
  C     -300.639     494.307      40.756
  C     -301.770     493.909      41.456
  C     -301.943     494.452      42.739
  N     -303.023     494.155      43.544
  N     -302.516     493.016      40.709
  C     -301.853     492.890      39.579
  N     -300.721     493.660      39.554
  O     -302.825     490.131      38.324
  O     -303.014     491.559      36.210
  H     -297.136     493.690      39.028
  H     -303.496     492.111      36.854
  H     -299.255     496.336      42.813
  H     -302.148     492.257      38.755
  H     -299.268     494.719      38.516
  H     -299.150     491.667      38.913
  H     -297.937     491.463      36.870
  H     -299.330     493.474      35.476
  H     -301.253     491.959      35.317
  H     -303.126     494.682      44.393
  H     -303.799     493.649      43.134
  H     -299.746     491.039      35.124
  P     -295.778     492.895      36.831
  C     -295.466     493.882      34.440
  O     -295.386     492.753      35.284
  O     -295.621     491.682      37.688
  O     -294.988     494.187      37.350
  H     -295.481     495.013      37.154
  H     -295.200     493.582      33.426
  H     -294.761     494.649      34.773
  H     -296.483     494.288      34.438
  H     -301.876     487.237      35.360
  H     -301.815     487.521      37.083
  H     -300.596     488.214      36.040

 3  4  5  6  7  8  9  10  11  12  22  25  29  30  31  32 0
 6-311+G(2d,p)
 ****
 33  36  37 0
 6-311+G(2d,p)
 ****
 1  2  13  14  15  16  17  18  19  20  21  23  24  26 0
 3-21G
 ****
 27  28  34  35  38  39  40  41  42  43  44  45  46  47  48 0
 3-21G
 ****


