%nproc=1
%NoSave
%Mem=1900MB
#P OB98/GEN NMR

erre ene a

0 1
  C     -455.797     166.370     460.815
  O     -455.116     166.949     459.718
  H     -456.012     165.321     460.582
  H     -456.740     166.891     460.989
  H     -455.177     166.408     461.716
  P     -454.542     168.437     459.931
  C     -452.143     167.787     459.088
  O     -453.312     168.571     458.913
  C     -451.138     168.062     457.966
  O     -451.550     167.327     456.784
  C     -451.025     169.540     457.587
  O     -449.659     169.823     457.269
  C     -451.884     169.655     456.339
  O     -451.503     170.767     455.534
  C     -451.684     168.277     455.698
  N     -452.782     167.908     454.803
  C     -452.558     168.077     453.433
  O     -451.486     168.529     453.028
  N     -453.565     167.766     452.558
  C     -454.725     167.387     453.010
  N     -455.689     167.115     452.091
  C     -455.023     167.250     454.452
  C     -454.012     167.507     455.280
  O     -453.841     168.312     461.367
  O     -455.571     169.511     459.838
  H     -451.951     170.682     454.659
  H     -453.351     167.481     461.488
  H     -456.010     166.947     454.780
  H     -454.141     167.424     456.352
  H     -450.746     168.251     455.122
  H     -452.937     169.788     456.621
  H     -451.367     170.218     458.374
  H     -450.164     167.655     458.260
  H     -455.451     167.245     451.114
  H     -452.400     166.721     459.095
  H     -456.637     166.863     452.326
  H     -451.707     168.038     460.059
  P     -448.807     170.757     458.251
  C     -446.738     169.235     458.514
  O     -447.242     170.470     458.025
  O     -449.242     170.768     459.680
  O     -448.982     172.219     457.601
  H     -449.063     172.864     458.329
  H     -445.691     169.168     458.302
  H     -447.251     168.426     458.037
  H     -446.892     169.181     459.572

 6  7  8  9  10  11  12  13  14  15  16  26  30  31  32  33  35 0
 6-311+G(2d,p)
 ****
 37  38 0
 6-311+G(2d,p)
 ****
 1  2  3  4  5  17  18  19  20  21  22  23  24  25 0
 3-21G
 ****
 27  28  29  34  36  39  40  41  42  43  44  45  46 0
 3-21G
 ****


