%nproc=1
%NoSave
%Mem=1900MB
#P OB98/GEN NMR

erre ene a

0 1
  C      185.278      85.934     263.642
  O      186.211      86.068     262.579
  P      187.715      86.497     262.930
  C      187.292      88.868     261.869
  O      187.737      88.103     262.979
  C      188.490      89.369     261.055
  O      188.035      89.717     259.716
  C      189.183      90.611     261.640
  O      190.585      90.485     261.363
  C      188.578      91.748     260.833
  O      189.387      92.912     260.833
  C      188.440      91.079     259.458
  N      187.471      91.743     258.582
  C      187.857      92.929     257.962
  O      188.960      93.462     258.128
  N      186.912      93.514     257.157
  C      185.638      93.080     256.961
  O      184.831      93.654     256.242
  C      185.269      91.849     257.675
  C      186.188      91.241     258.434
  O      188.467      86.135     261.563
  O      188.261      85.830     264.147
  H      187.921      86.301     260.778
  H      188.857      93.649     260.481
  H      187.189      94.357     256.669
  H      184.254      91.482     257.561
  H      185.939      90.332     258.971
  H      189.415      91.035     258.961
  H      187.600      92.009     261.252
  H      189.023      90.711     262.722
  H      189.206      88.543     260.951
  H      186.719      89.723     262.229
  H      186.630      88.250     261.248
  P      191.627      90.960     262.496
  C      192.909      92.312     260.651
  O      192.363      92.276     261.949
  O      192.758      89.826     262.329
  O      191.069      91.024     263.881
  H      193.020      89.688     261.404
  H      193.050      93.358     260.353
  H      192.243      91.832     259.925
  H      193.881      91.812     260.643
  H      184.327      85.645     263.247
  H      185.183      86.869     264.153
  H      185.622      85.187     264.327

 3  4  5  6  7  8  9  10  11  12  13  24  28  29  30  31  32 0
 6-311+G(2d,p)
 ****
 33  34 0
 6-311+G(2d,p)
 ****
 1  2  14  15  16  17  18  19  20  21  22  23  25  26  27 0
 3-21G
 ****
 35  36  37  38  39  40  41  42  43  44  45 0
 3-21G
 ****


