%nproc=1
%NoSave
%Mem=1900MB
#P OB98/GEN NMR

erre ene a

0 1
  C      306.734     -78.481    -100.415
  O      307.955     -77.762    -100.292
  P      308.461     -77.050     -98.956
  C      308.059     -74.579     -99.745
  O      307.734     -75.631     -98.844
  C      306.987     -73.477     -99.805
  O      305.696     -74.077    -100.099
  C      306.839     -72.785     -98.449
  O      307.723     -71.745     -98.086
  C      305.368     -72.412     -98.357
  O      305.113     -71.083     -98.795
  C      304.698     -73.426     -99.291
  N      300.380     -74.461     -96.740
  C      300.825     -73.259     -97.243
  N      300.056     -72.173     -96.996
  N      301.938     -73.120     -97.918
  C      302.659     -74.261     -98.012
  C      302.336     -75.510     -97.534
  C      301.070     -75.666     -96.842
  O      300.627     -76.715     -96.384
  N      303.319     -76.426     -97.799
  C      304.255     -75.733     -98.414
  N      303.895     -74.409     -98.576
  O      309.932     -77.074     -98.724
  O      307.770     -77.926     -97.786
  H      304.154     -70.988     -98.935
  H      308.387     -77.912     -97.026
  H      299.502     -74.519     -96.245
  H      305.198     -76.128     -98.772
  H      304.013     -72.922     -99.981
  H      305.018     -72.471     -97.318
  H      299.252     -72.196     -96.390
  H      306.997     -73.562     -97.679
  H      300.480     -71.267     -97.180
  H      307.186     -72.782    -100.628
  H      308.195     -75.038    -100.725
  H      309.019     -74.140     -99.470
  P      309.147     -71.912     -97.366
  C      308.596     -70.351     -95.409
  O      308.943     -71.673     -95.796
  O      309.962     -70.612     -97.813
  O      309.892     -73.161     -97.724
  H      310.919     -70.737     -97.657
  H      308.788     -70.231     -94.342
  H      307.538     -70.174     -95.609
  H      309.191     -69.613     -95.957
  H      306.639     -78.855    -101.413
  H      305.913     -77.830    -100.199
  H      306.731     -79.299     -99.726

 3  4  5  6  7  8  9  10  11  12  23  26  30  31 0
 6-311+G(2d,p)
 ****
 33  35  36  37  38 0
 6-311+G(2d,p)
 ****
 1  2  13  14  15  16  17  18  19  20  21  22  24  25 0
 3-21G
 ****
 27  28  29  32  34  39  40  41  42  43  44  45  46  47  48  49 0
 3-21G
 ****


