%nproc=1
%NoSave
%Mem=1900MB
#P OB98/GEN NMR

erre ene a

0 1
  C     -272.637     340.399     123.404
  O     -272.829     339.546     122.291
  H     -273.213     341.316     123.246
  H     -271.582     340.664     123.514
  H     -272.997     339.914     124.314
  P     -271.877     338.262     122.151
  C     -272.779     337.146     124.292
  O     -271.649     337.732     123.653
  C     -272.397     336.551     125.649
  O     -273.578     336.154     126.381
  C     -271.550     335.291     125.562
  O     -270.256     335.485     125.041
  C     -271.716     334.706     126.956
  O     -270.832     335.305     127.905
  C     -273.182     335.092     127.280
  N     -274.085     333.950     127.197
  C     -274.366     333.308     128.399
  O     -273.879     333.642     129.480
  N     -275.209     332.235     128.312
  C     -275.745     331.724     127.168
  O     -276.483     330.743     127.159
  C     -275.382     332.422     125.925
  C     -274.582     333.488     125.998
  O     -270.605     338.480     121.385
  O     -272.829     337.146     121.512
  H     -270.895     334.776     128.724
  H     -272.304     336.391     121.152
  H     -275.440     331.764     129.176
  H     -275.781     332.039     124.997
  H     -274.300     334.024     125.089
  H     -273.248     335.506     128.295
  H     -271.530     333.632     126.975
  H     -272.046     334.593     124.873
  H     -271.893     337.331     126.233
  H     -273.154     336.348     123.641
  H     -273.562     337.902     124.417
  P     -269.315     334.300     124.539
  C     -270.819     333.552     122.535
  O     -270.223     333.216     123.781
  O     -268.288     333.804     125.499
  O     -268.538     335.002     123.308
  H     -267.634     334.625     123.285
  H     -271.385     332.719     122.174
  H     -270.054     333.796     121.828
  H     -271.466     334.394     122.665

 6  7  8  9  10  11  12  13  14  15  16  26  31  32  33  34  35 0
 6-311+G(2d,p)
 ****
 36  37 0
 6-311+G(2d,p)
 ****
 1  2  3  4  5  17  18  19  20  21  22  23  24  25 0
 3-21G
 ****
 27  28  29  30  38  39  40  41  42  43  44  45 0
 3-21G
 ****


