%nproc=1
%NoSave
%Mem=1900MB
#P OB98/GEN NMR

erre ene a

0 1
  C      885.469     529.972    -358.989
  O      884.573     530.623    -359.902
  P      883.355     529.780    -360.530
  C      881.479     531.586    -360.792
  O      882.425     530.737    -361.429
  C      882.122     532.896    -360.330
  O      882.842     533.519    -361.436
  C      881.129     533.934    -359.798
  O      881.806     534.676    -358.761
  C      880.902     534.824    -361.008
  O      880.381     536.096    -360.682
  C      882.316     534.854    -361.586
  N      882.382     535.268    -362.985
  C      882.829     536.561    -363.264
  O      883.120     537.395    -362.412
  N      882.905     536.895    -364.596
  C      882.557     536.089    -365.656
  O      882.624     536.458    -366.825
  C      882.067     534.751    -365.300
  C      882.009     534.413    -364.008
  O      882.431     529.520    -359.247
  O      883.742     528.478    -361.162
  H      880.877     536.431    -359.910
  H      882.151     528.593    -359.227
  H      883.239     537.817    -364.812
  H      881.791     534.089    -366.107
  H      881.657     533.419    -363.727
  H      882.943     535.511    -360.989
  H      880.178     534.340    -361.683
  H      880.213     533.495    -359.400
  H      882.870     532.644    -359.562
  H      881.056     531.060    -359.921
  H      880.657     531.785    -361.499
  P      881.609     534.205    -357.232
  C      883.991     535.059    -356.552
  O      882.597     535.097    -356.346
  O      882.368     532.787    -357.283
  O      880.198     534.105    -356.790
  H      883.213     532.823    -357.753
  H      884.237     535.051    -357.620
  H      884.411     534.195    -356.069
  H      884.430     535.956    -356.117
  H      886.216     530.667    -358.667
  H      885.939     529.145    -359.479
  H      884.920     529.619    -358.141

 3  4  5  6  7  8  9  10  11  12  13  23  28  29  30  31  32 0
 6-311+G(2d,p)
 ****
 33  34 0
 6-311+G(2d,p)
 ****
 1  2  14  15  16  17  18  19  20  21  22  24  25  26 0
 3-21G
 ****
 27  35  36  37  38  39  40  41  42  43  44  45 0
 3-21G
 ****


