%nproc=1
%NoSave
%Mem=1900MB
#P OB98/GEN NMR

erre ene a

0 1
  C     -246.539    -898.100    -897.030
  O     -247.559    -898.250    -896.010
  P     -247.143    -898.210    -894.460
  C     -248.882    -896.400    -893.640
  O     -247.506    -896.770    -893.870
  C     -249.390    -895.540    -894.780
  O     -249.285    -896.220    -896.050
  C     -250.842    -895.120    -894.670
  O     -251.031    -894.100    -893.710
  C     -251.152    -894.700    -896.100
  O     -250.740    -893.330    -896.340
  C     -250.318    -895.690    -896.920
  N     -251.107    -896.760    -897.530
  C     -251.899    -896.390    -898.600
  O     -251.986    -895.220    -899.020
  N     -252.622    -897.390    -899.190
  C     -252.686    -898.680    -898.780
  O     -253.364    -899.550    -899.320
  C     -251.870    -899.000    -897.560
  C     -251.154    -898.040    -897.000
  O     -245.539    -898.170    -894.550
  O     -247.597    -899.390    -893.650
  H     -251.291    -892.770    -895.740
  H     -245.156    -898.560    -893.750
  H     -253.182    -897.160    -900.000
  H     -251.909    -900.000    -897.170
  H     -250.554    -898.250    -896.110
  H     -249.784    -895.170    -897.720
  H     -252.229    -894.740    -896.320
  H     -251.451    -896.020    -894.420
  H     -248.715    -894.630    -894.840
  H     -248.943    -895.870    -892.710
  H     -249.460    -897.330    -893.560
  P     -251.015    -894.530    -892.130
  C     -249.053    -892.880    -891.570
  O     -249.516    -894.210    -891.640
  O     -251.092    -896.110    -892.280
  O     -252.122    -893.890    -891.380
  H     -250.632    -896.450    -893.100
  H     -249.870    -892.190    -891.310
  H     -248.589    -892.590    -892.540
  H     -248.277    -892.830    -890.800
  H     -246.992    -898.151    -897.998
  H     -245.818    -898.885    -896.932
  H     -246.054    -897.153    -896.913

 3  4  5  6  7  8  9  10  11  12  13  23  28  29  30  31  32 0
 6-311+G(2d,p)
 ****
 33  34 0
 6-311+G(2d,p)
 ****
 1  2  14  15  16  17  18  19  20  21  22  24  25  26 0
 3-21G
 ****
 27  35  36  37  38  39  40  41  42  43  44  45 0
 3-21G
 ****


