%nproc=1
%NoSave
%Mem=1900MB
#P OB98/GEN NMR

erre ene a

0 1
  C      -21.323     -70.653      22.556
  O      -20.234     -69.964      23.141
  H      -21.358     -70.409      21.490
  H      -22.267     -70.355      23.017
  H      -21.182     -71.732      22.662
  P      -20.132     -69.934      24.743
  C      -21.799     -69.347      26.621
  O      -21.474     -69.200      25.242
  C      -23.308     -69.254      26.848
  O      -23.983     -70.383      26.256
  C      -23.721     -69.279      28.311
  O      -23.322     -68.152      29.056
  C      -25.198     -69.625      28.215
  O      -26.008     -68.480      27.945
  C      -25.209     -70.580      26.996
  N      -25.384     -71.975      27.387
  C      -26.697     -72.421      27.482
  O      -27.676     -71.702      27.279
  N      -26.857     -73.727      27.857
  C      -25.856     -74.594      28.182
  O      -26.067     -75.751      28.531
  C      -24.490     -74.056      28.101
  C      -24.317     -72.789      27.711
  O      -18.873     -69.341      25.301
  O      -20.372     -71.456      25.171
  H      -25.869     -67.854      28.681
  H      -20.093     -71.613      26.107
  H      -27.802     -74.075      27.917
  H      -23.672     -74.711      28.364
  H      -23.317     -72.368      27.641
  H      -26.029     -70.316      26.314
  H      -25.576     -70.080      29.133
  H      -23.233     -70.139      28.790
  H      -23.671     -68.350      26.348
  H      -21.302     -68.539      27.170
  H      -21.420     -70.307      26.986
  P      -23.348     -68.086      30.649
  C      -25.172     -68.011      32.521
  O      -24.872     -67.968      31.131
  O      -22.333     -67.203      31.300
  O      -22.990     -69.612      31.042
  H      -22.468     -69.580      31.869
  H      -26.229     -67.919      32.661
  H      -24.675     -67.204      33.018
  H      -24.838     -68.942      32.929

 6  7  8  9  10  11  12  13  14  15  16  26  31  32  33  34  35 0
 6-311+G(2d,p)
 ****
 36  37 0
 6-311+G(2d,p)
 ****
 1  2  3  4  5  17  18  19  20  21  22  23  24  25 0
 3-21G
 ****
 27  28  29  30  38  39  40  41  42  43  44  45 0
 3-21G
 ****


