%nproc=1
%NoSave
%Mem=1900MB
#P OB98/GEN NMR

erre ene a

0 1
  C      530.798    -549.839     887.438
  O      531.911    -549.466     886.655
  H      530.567    -549.036     888.145
  H      531.027    -550.745     888.005
  H      529.917    -550.013     886.809
  P      532.266    -550.399     885.396
  C      534.379    -551.592     886.326
  O      533.006    -551.699     885.992
  C      535.052    -552.968     886.219
  O      534.467    -553.849     887.216
  C      534.861    -553.648     884.844
  O      536.057    -554.367     884.544
  C      533.731    -554.630     885.104
  O      533.707    -555.724     884.192
  C      534.037    -555.053     886.544
  N      532.887    -555.652     887.218
  C      532.733    -557.020     887.121
  O      533.545    -557.792     886.568
  N      531.593    -557.540     887.673
  C      530.592    -556.825     888.280
  O      529.582    -557.328     888.735
  C      530.799    -555.364     888.348
  C      531.930    -554.855     887.814
  O      533.449    -549.589     884.684
  O      531.135    -550.695     884.469
  H      533.091    -548.963     884.025
  H      534.603    -556.114     884.182
  H      531.472    -558.533     887.610
  H      530.039    -554.760     888.800
  H      532.102    -553.774     887.831
  H      534.880    -555.764     886.563
  H      532.768    -554.112     885.050
  H      534.624    -552.947     884.037
  H      536.105    -552.862     886.457
  H      534.475    -551.227     887.370
  H      534.867    -550.873     885.657
  P      537.217    -553.560     883.776
  C      536.609    -553.538     881.219
  O      536.523    -552.897     882.501
  O      538.094    -554.779     883.173
  O      537.977    -552.638     884.677
  H      537.535    -555.527     882.904
  H      536.088    -552.951     880.491
  H      536.167    -554.511     881.276
  H      537.636    -553.630     880.934

 6  7  8  9  10  11  12  13  14  15  16  27  31  32  33  34  35 0
 6-311+G(2d,p)
 ****
 36  37 0
 6-311+G(2d,p)
 ****
 1  2  3  4  5  17  18  19  20  21  22  23  24  25 0
 3-21G
 ****
 26  28  29  30  38  39  40  41  42  43  44  45 0
 3-21G
 ****


