%nproc=1
%NoSave
%Mem=1900MB
#P OB98/GEN NMR

erre ene a

0 1
  C      -59.577      95.760      17.737
  O      -58.442      96.021      18.539
  H      -59.354      94.919      17.077
  H      -59.816      96.635      17.127
  H      -60.433      95.500      18.366
  P      -58.571      97.215      19.601
  C      -59.491      95.736      21.531
  O      -59.740      96.795      20.615
  C      -59.527      96.271      22.958
  O      -58.505      97.282      23.127
  C      -60.836      96.954      23.328
  O      -61.861      96.027      23.636
  C      -60.402      97.795      24.518
  O      -60.393      97.027      25.728
  C      -58.975      98.204      24.136
  N      -58.566     103.106      25.497
  C      -58.511     101.964      26.214
  N      -58.617     100.692      25.774
  C      -58.766     100.666      24.439
  C      -58.835     101.746      23.576
  C      -58.725     103.021      24.156
  N      -58.805     104.186      23.430
  N      -59.033     101.319      22.279
  C      -59.074     100.005      22.354
  N      -58.914      99.565      23.638
  O      -59.220      98.396      18.738
  O      -57.291      97.634      20.242
  H      -61.320      96.767      25.893
  H      -58.523      99.023      18.467
  H      -58.376     102.087      27.285
  H      -59.225      99.335      21.515
  H      -58.284      98.138      24.984
  H      -61.077      98.638      24.665
  H      -61.153      97.625      22.520
  H      -59.307      95.446      23.648
  H      -58.503      95.307      21.330
  H      -60.252      94.961      21.390
  H      -58.786     105.065      23.920
  H      -59.038     104.134      22.446
  P      -63.377      96.484      23.391
  C      -63.044      96.511      20.804
  O      -63.426      97.227      21.972
  O      -63.597      97.666      24.447
  O      -64.387      95.399      23.555
  H      -64.513      97.643      24.786
  H      -63.134      97.149      19.949
  H      -63.681      95.660      20.683
  H      -62.029      96.186      20.901

 6  7  8  9  10  11  12  13  14  15  25  28  32  33  34  35 0
 6-311+G(2d,p)
 ****
 36  37  40 0
 6-311+G(2d,p)
 ****
 1  2  3  4  5  16  17  18  19  20  21  22  23  24 0
 3-21G
 ****
 26  27  29  30  31  38  39 41  42  43  44  45  46  47  48 0
 3-21G
 ****


