%nproc=1
%NoSave
%Mem=1900MB
#P OB98/GEN NMR

erre ene a

0 1
  C     -163.441     121.014     136.072
  O     -162.731     120.430     134.975
  P     -161.558     121.301     134.309
  C     -159.863     121.959     136.195
  O     -160.256     121.023     135.202
  C     -158.369     122.254     136.073
  O     -158.011     123.416     136.861
  C     -157.471     121.133     136.574
  O     -157.437     120.049     135.659
  C     -156.150     121.874     136.739
  O     -155.488     122.006     135.471
  C     -156.621     123.259     137.233
  N     -156.427     123.452     138.664
  C     -155.897     124.682     139.043
  O     -155.583     125.555     138.236
  N     -155.720     124.868     140.387
  C     -155.988     123.953     141.364
  O     -155.819     124.180     142.554
  C     -156.498     122.654     140.899
  C     -156.692     122.465     139.591
  O     -162.008     122.781     134.709
  O     -161.409     121.056     132.846
  H     -162.429     122.827     135.584
  H     -154.685     122.540     135.634
  H     -155.349     125.757     140.683
  H     -156.697     121.895     141.644
  H     -157.065     121.512     139.230
  H     -156.076     124.052     136.708
  H     -155.462     121.359     137.415
  H     -157.823     120.782     137.551
  H     -158.150     122.472     135.020
  H     -160.069     121.556     137.191
  H     -160.456     122.870     136.078
  P     -157.661     118.579     136.269
  C     -159.830     117.971     134.943
  O     -158.455     117.744     135.155
  O     -158.762     118.874     137.392
  O     -156.410     117.946     136.781
  H     -159.470     119.463     137.085
  H     -160.100     117.588     133.955
  H     -160.072     119.036     134.984
  H     -160.411     117.434     135.697
  H     -164.189     120.331     136.417
  H     -163.908     121.922     135.752
  H     -162.757     121.226     136.867

 3  4  5  6  7  8  9  10  11  12  13  24  28  29  30  31  32 0
 6-311+G(2d,p)
 ****
 33  34 0
 6-311+G(2d,p)
 ****
 1  2  14  15  16  17  18  19  20  21  22  23  25  26  27 0
 3-21G
 ****
 35  36  37  38  39  40  41  42  43  44  45 0
 3-21G
 ****


