%nproc=1
%NoSave
%Mem=1900MB
#P OB98/GEN NMR

erre ene a

0 1
  C      191.261    -148.077     105.045
  O      190.621    -147.090     104.238
  P      189.356    -146.349     104.904
  C      187.481    -147.514     103.546
  O      188.099    -147.349     104.814
  C      185.979    -147.771     103.680
  O      185.401    -148.197     102.411
  C      185.625    -148.845     104.721
  O      184.384    -148.453     105.322
  C      185.386    -150.076     103.858
  O      184.645    -151.071     104.556
  C      184.680    -149.428     102.668
  N      182.016    -150.610      98.547
  C      181.696    -149.781      99.606
  N      180.511    -149.134      99.530
  N      182.468    -149.603     100.644
  C      183.642    -150.286     100.561
  C      184.076    -151.118      99.559
  C      183.195    -151.335      98.427
  O      183.430    -152.053      97.461
  N      185.340    -151.606      99.825
  C      185.621    -151.109     101.019
  N      184.658    -150.265     101.478
  O      189.012    -145.197     103.849
  O      189.634    -145.794     106.265
  H      183.873    -150.626     104.966
  H      189.367    -144.338     104.155
  H      181.372    -150.723      97.776
  H      186.526    -151.311     101.571
  H      183.637    -149.177     102.890
  H      186.345    -150.515     103.553
  H      179.888    -149.187      98.736
  H      186.391    -149.008     105.485
  H      180.271    -148.495     100.273
  H      185.492    -146.824     103.954
  H      187.935    -148.359     103.018
  H      187.680    -146.628     102.929
  P      184.437    -147.344     106.475
  C      184.470    -148.907     108.547
  O      185.187    -147.996     107.730
  O      182.909    -147.260     106.967
  O      184.933    -146.008     106.038
  H      182.679    -146.328     107.158
  H      185.180    -149.592     109.022
  H      183.754    -149.494     107.962
  H      183.931    -148.352     109.325
  H      192.082    -148.501     104.506
  H      190.560    -148.847     105.290
  H      191.621    -147.623     105.945

 3  4  5  6  7  8  9  10  11  12  23  26  30  31 0
 6-311+G(2d,p)
 ****
 33  35  36  37  38 0
 6-311+G(2d,p)
 ****
 1  2  13  14  15  16  17  18  19  20  21  22  24  25 0
 3-21G
 ****
 27  28  29  32  34  39  40  41  42  43  44  45  46  47  48  49 0
 3-21G
 ****


