%nproc=1
%NoSave
%Mem=1900MB
#P OB98/GEN NMR

erre ene a

0 1
  C       46.837     375.721      70.717
  O       46.068     376.806      70.232
  H       46.950     374.991      69.914
  H       46.326     375.243      71.561
  H       47.824     376.072      71.032
  P       45.731     377.972      71.282
  C       43.369     377.092      71.865
  O       44.714     377.290      72.320
  C       42.437     376.804      73.045
  O       42.432     377.974      73.917
  C       40.987     376.532      72.625
  O       40.418     375.554      73.503
  C       40.302     377.865      72.867
  O       38.887     377.732      73.055
  C       41.052     378.381      74.091
  N       38.318     382.130      76.184
  C       38.303     380.789      76.368
  N       39.087     379.860      75.780
  C       39.998     380.442      74.977
  C       40.147     381.793      74.704
  C       39.241     382.663      75.345
  N       39.230     384.022      75.154
  N       41.171     381.993      73.795
  C       41.647     380.790      73.537
  N       40.962     379.823      74.222
  O       45.268     379.265      70.690
  O       47.086     378.055      72.135
  H       38.521     378.599      73.312
  H       47.397     377.171      72.394
  H       37.560     380.410      77.067
  H       42.474     380.553      72.867
  H       40.684     377.944      75.030
  H       40.451     378.531      72.011
  H       40.885     376.194      71.592
  H       42.853     375.978      73.628
  H       43.341     376.252      71.158
  H       38.544     384.570      75.651
  H       39.905     384.449      74.531
  H       43.051     378.002      71.335
  P       39.710     374.263      72.868
  C       37.345     375.289      72.676
  O       38.465     374.745      71.975
  O       39.403     373.154      73.817
  O       40.766     373.788      71.755
  H       40.833     372.803      71.778
  H       36.588     375.571      71.975
  H       37.655     376.150      73.231
  H       36.953     374.554      73.348

 6  7  8  9  10  11  12  13  14  15  25  28  32  33  34  35 0
 6-311+G(2d,p)
 ****
 36  39  40 0
 6-311+G(2d,p)
 ****
 1  2  3  4  5  16  17  18  19  20  21  22  23  24 0
 3-21G
 ****
 26  27  29  30  31  37  38  41  42  43  44  45  46  47 0
 3-21G
 ****
 48 0
 3-21G
 ****


