%nproc=1
%NoSave
%Mem=1900MB
#P OB98/GEN NMR

erre ene a

0 1
  C     -393.411    -130.918    -464.210
  O     -394.269    -129.984    -464.880
  P     -393.593    -129.006    -465.958
  C     -394.971    -129.859    -468.015
  O     -393.711    -129.766    -467.367
  C     -394.897    -130.870    -469.164
  O     -394.386    -132.144    -468.683
  C     -396.237    -131.182    -469.810
  O     -396.675    -130.123    -470.638
  C     -395.906    -132.480    -470.542
  O     -395.236    -132.195    -471.781
  C     -394.934    -133.164    -469.558
  N     -395.551    -134.241    -468.800
  C     -395.365    -135.528    -469.303
  O     -394.742    -135.753    -470.339
  N     -395.936    -136.539    -468.584
  C     -396.685    -136.395    -467.455
  O     -397.167    -137.342    -466.844
  C     -396.891    -135.011    -466.994
  C     -396.319    -134.015    -467.676
  O     -392.047    -129.135    -465.564
  O     -394.146    -127.617    -465.915
  H     -391.806    -130.022    -465.259
  H     -394.916    -133.057    -472.118
  H     -395.803    -137.478    -468.928
  H     -397.500    -134.855    -466.115
  H     -396.465    -132.987    -467.356
  H     -394.079    -133.582    -470.107
  H     -396.801    -133.061    -470.778
  H     -396.988    -131.378    -469.030
  H     -394.192    -130.480    -469.911
  H     -395.256    -128.885    -468.416
  H     -395.731    -130.150    -467.283
  P     -397.750    -129.105    -470.013
  C     -396.292    -127.008    -470.566
  O     -396.951    -127.791    -469.591
  O     -398.076    -129.821    -468.619
  O     -398.947    -128.882    -470.889
  H     -397.288    -130.146    -468.160
  H     -396.113    -126.008    -470.159
  H     -396.898    -126.916    -471.472
  H     -395.327    -127.467    -470.818
  H     -393.987    -131.503    -463.524
  H     -392.653    -130.385    -463.675
  H     -392.953    -131.562    -464.931

 3  4  5  6  7  8  9  10  11  12  13  24  28  29  30  31  32 0
 6-311+G(2d,p)
 ****
 33  34 0
 6-311+G(2d,p)
 ****
 1  2  14  15  16  17  18  19  20  21  22  23  25  26  27 0
 3-21G
 ****
 35  36  37  38  39  40  41  42  43  44  45 0
 3-21G
 ****


