%nproc=1
%NoSave
%Mem=1900MB
#P OB98/GEN NMR

erre ene a

0 1
  C       42.623      19.710     -10.903
  O       42.390      21.053     -11.280
  P       40.986      21.755     -10.978
  C       40.160      21.066     -13.302
  O       39.882      21.051     -11.908
  C       38.997      20.490     -14.107
  O       38.927      19.056     -13.879
  C       37.622      21.075     -13.755
  O       36.861      21.097     -14.967
  C       37.046      20.033     -12.811
  O       35.629      20.097     -12.713
  C       37.581      18.759     -13.455
  N       34.781      15.017     -11.384
  C       34.459      16.017     -12.231
  N       35.256      16.990     -12.716
  C       36.505      16.861     -12.243
  C       36.976      15.912     -11.350
  C       36.053      14.940     -10.925
  N       36.374      13.894     -10.089
  N       38.307      16.146     -11.058
  C       38.628      17.211     -11.761
  N       37.590      17.638     -12.541
  O       40.992      23.246     -11.042
  O       40.604      21.242      -9.512
  H       35.379      20.997     -12.431
  H       40.731      21.963      -8.864
  H       33.426      16.036     -12.568
  H       39.587      17.710     -11.743
  H       37.003      18.468     -14.340
  H       37.461      20.177     -11.807
  H       37.664      22.071     -13.306
  H       39.213      20.636     -15.172
  H       41.054      20.459     -13.474
  H       35.672      13.183      -9.955
  H       37.354      13.661      -9.948
  H       40.372      22.091     -13.627
  P       35.717      22.201     -15.172
  C       34.115      20.661     -13.905
  O       34.646      21.969     -14.006
  O       35.155      22.290     -16.552
  O       36.436      23.567     -14.737
  H       35.930      24.327     -15.083
  H       33.324      20.531     -14.648
  H       33.691      20.526     -12.906
  H       34.890      19.907     -14.066
  H       43.614      19.426     -11.190
  H       41.914      19.074     -11.391
  H       42.517      19.614      -9.843

 3  4  5  6  7  8  9  10  11  12  22  25  29  30  31  32 0
 6-311+G(2d,p)
 ****
 33  36  37 0
 6-311+G(2d,p)
 ****
 1  2  13  14  15  16  17  18  19  20  21  23  24  26 0
 3-21G
 ****
 27  28  34  35  38  39  40  41  42  43  44  45  46  47  48 0
 3-21G
 ****


