%nproc=1
%NoSave
%Mem=1900MB
#P OB98/GEN NMR

erre ene a

0 1
  C     -192.679     -93.924    -144.074
  O     -191.960     -94.979    -144.680
  P     -190.623     -95.598    -144.060
  C     -190.824     -98.180    -143.844
  O     -191.020     -96.914    -143.224
  C     -191.769     -99.263    -143.306
  O     -193.134     -98.899    -143.597
  C     -191.513    -100.591    -144.025
  O     -190.473    -101.446    -143.595
  C     -192.883    -101.252    -144.133
  O     -193.102    -102.227    -143.112
  C     -193.856    -100.082    -143.975
  N     -197.279    -101.798    -147.298
  C     -196.966    -102.284    -146.042
  N     -197.499    -103.484    -145.722
  N     -196.186    -101.660    -145.198
  C     -195.650    -100.521    -145.700
  C     -195.898     -99.933    -146.919
  C     -196.794    -100.612    -147.824
  O     -197.033    -100.258    -148.977
  N     -195.122     -98.819    -147.115
  C     -194.375     -98.753    -146.031
  N     -194.632     -99.785    -145.162
  O     -189.651     -94.634    -143.461
  O     -189.930     -96.229    -145.375
  H     -193.034    -101.778    -142.249
  H     -188.964     -96.139    -145.267
  H     -197.827    -102.364    -147.934
  H     -193.615     -98.002    -145.844
  H     -194.571    -100.281    -143.167
  H     -192.985    -101.778    -145.089
  H     -197.983    -104.056    -146.397
  H     -191.241    -100.342    -145.060
  H     -197.158    -103.947    -144.886
  H     -191.706     -99.335    -142.215
  H     -189.778     -98.463    -143.686
  H     -190.970     -98.083    -144.925
  P     -189.313    -102.063    -144.509
  C     -187.358    -102.577    -142.940
  O     -187.900    -101.659    -143.874
  O     -189.361    -101.193    -145.852
  O     -189.469    -103.515    -144.826
  H     -188.958    -101.693    -146.585
  H     -186.580    -102.077    -142.360
  H     -186.916    -103.424    -143.475
  H     -188.133    -102.942    -142.257
  H     -193.533     -93.684    -144.673
  H     -192.048     -93.064    -143.992
  H     -193.000     -94.225    -143.099

 3  4  5  6  7  8  9  10  11  12  23  26  30  31 0
 6-311+G(2d,p)
 ****
 33  35  36  37  38 0
 6-311+G(2d,p)
 ****
 1  2  13  14  15  16  17  18  19  20  21  22  24  25 0
 3-21G
 ****
 27  28  29  32  34  39  40  41  42  43  44  45  46  47  48  49 0
 3-21G
 ****


