%nproc=1
%NoSave
%Mem=1900MB
#P OB98/GEN NMR

erre ene a

0 1
  C       13.620    -220.722     -84.596
  O       13.372    -222.102     -84.357
  P       14.558    -222.970     -83.709
  C       14.680    -224.075     -86.056
  O       14.708    -224.263     -84.645
  C       15.328    -225.259     -86.768
  O       16.762    -225.192     -86.638
  C       14.929    -226.622     -86.219
  O       13.683    -227.063     -86.732
  C       16.059    -227.487     -86.753
  O       15.822    -227.801     -88.139
  C       17.267    -226.554     -86.621
  N       19.649    -230.060     -83.762
  C       18.919    -230.167     -84.891
  N       18.306    -229.187     -85.588
  C       18.475    -227.998     -84.983
  C       19.163    -227.744     -83.807
  C       19.782    -228.840     -83.188
  N       20.552    -228.725     -82.053
  N       19.115    -226.401     -83.501
  C       18.421    -225.853     -84.475
  N       18.021    -226.775     -85.402
  O       13.890    -223.553     -82.376
  O       15.810    -222.213     -83.425
  H       15.020    -228.358     -88.170
  H       14.583    -223.781     -81.727
  H       18.819    -231.172     -85.296
  H       18.193    -224.799     -84.556
  H       17.963    -226.652     -87.461
  H       16.152    -228.440     -86.222
  H       14.947    -226.630     -85.123
  H       15.080    -225.187     -87.835
  H       15.230    -223.164     -86.305
  H       21.109    -229.519     -81.779
  H       20.812    -227.795     -81.747
  H       13.640    -223.957     -86.378
  P       12.564    -227.477     -85.657
  C       11.478    -229.236     -87.235
  O       11.331    -228.022     -86.522
  O       12.056    -226.067     -85.100
  O       13.061    -228.373     -84.573
  H       11.693    -226.167     -84.201
  H       10.487    -229.611     -87.498
  H       11.987    -229.991     -86.628
  H       12.044    -229.058     -88.153
  H       12.750    -220.273     -85.027
  H       14.445    -220.619     -85.270
  H       13.852    -220.236     -83.671

 3  4  5  6  7  8  9  10  11  12  22  25  29  30  31  32 0
 6-311+G(2d,p)
 ****
 33  36  37 0
 6-311+G(2d,p)
 ****
 1  2  13  14  15  16  17  18  19  20  21  23  24  26 0
 3-21G
 ****
 27  28  34  35  38  39  40  41  42  43  44  45  46  47  48 0
 3-21G
 ****


