%nproc=1
%NoSave
%Mem=1900MB
#P OB98/GEN NMR

erre ene a

0 1
  C      407.649    -145.235      46.827
  O      407.458    -145.259      45.424
  P      406.144    -144.623      44.764
  C      404.698    -146.389      43.567
  O      405.036    -145.787      44.812
  C      405.771    -147.392      43.133
  O      406.085    -148.296      44.211
  C      405.364    -148.269      41.954
  O      405.454    -147.548      40.735
  C      406.359    -149.419      42.083
  O      407.625    -149.090      41.493
  C      406.491    -149.555      43.622
  N      405.726    -150.674      44.148
  C      406.446    -151.855      44.389
  O      407.647    -151.908      44.128
  N      405.775    -152.947      44.879
  C      404.491    -152.880      45.082
  N      403.874    -154.000      45.548
  C      403.690    -151.669      44.809
  C      404.364    -150.615      44.348
  O      406.341    -143.979      43.434
  O      405.631    -143.605      45.896
  H      408.207    -149.857      41.655
  H      406.197    -142.791      45.935
  H      402.624    -151.663      44.982
  H      403.851    -149.683      44.117
  H      407.547    -149.697      43.904
  H      405.999    -150.331      41.598
  H      404.343    -148.649      42.109
  H      406.684    -146.826      42.880
  H      404.456    -154.819      45.698
  H      404.612    -145.603      42.812
  H      402.883    -154.069      45.704
  H      403.720    -146.888      43.655
  P      405.063    -148.268      39.357
  C      407.131    -148.671      37.878
  O      406.305    -149.183      38.914
  O      404.525    -147.361      38.294
  O      403.962    -149.347      39.793
  H      403.222    -149.321      39.152
  H      408.092    -149.194      37.904
  H      407.304    -147.599      38.018
  H      406.653    -148.849      36.913
  H      408.579    -145.705      47.068
  H      406.849    -145.761      47.305
  H      407.663    -144.221      47.168

 3  4  5  6  7  8  9  10  11  12  13  23  27  28  29  30  32 0
 6-311+G(2d,p)
 ****
 34  35 0
 6-311+G(2d,p)
 ****
 1  2  14  15  16  17  18  19  20  21  22  24  25  26 0
 3-21G
 ****
 31  33  36  37  38  39  40  41  42  43  44  45  46 0
 3-21G
 ****


