%nproc=1
%NoSave
%Mem=1900MB
#P OB98/GEN NMR

erre ene a

0 1
  C      376.006     147.158      49.549
  O      377.138     146.876      48.749
  H      375.901     146.368      50.298
  H      375.092     147.191      48.945
  H      376.142     148.112      50.071
  P      377.349     147.738      47.409
  C      376.374     145.843      45.953
  O      376.239     147.194      46.372
  C      377.448     145.699      44.876
  O      377.768     144.305      44.646
  C      377.029     146.230      43.507
  O      376.834     147.625      43.442
  C      378.046     145.572      42.587
  O      379.285     146.281      42.542
  C      378.254     144.197      43.292
  N      377.586     143.118      42.577
  C      378.073     142.851      41.284
  O      378.975     143.487      40.762
  N      377.459     141.833      40.616
  C      376.383     141.105      41.063
  O      375.859     140.220      40.404
  C      375.892     141.450      42.408
  C      376.514     142.423      43.086
  O      378.742     147.751      46.849
  O      376.798     149.190      47.803
  H      379.763     145.969      41.759
  H      377.098     149.875      47.145
  H      377.801     141.620      39.690
  H      375.050     140.908      42.794
  H      376.174     142.698      44.089
  H      379.322     143.965      43.350
  H      377.680     145.486      41.563
  H      376.052     145.783      43.251
  H      378.353     146.197      45.229
  H      375.409     145.517      45.555
  H      376.622     145.219      46.814
  P      375.456     148.322      43.021
  C      375.647     147.639      40.493
  O      374.894     147.578      41.704
  O      375.428     149.811      43.062
  O      374.459     147.780      44.168
  H      373.813     148.484      44.335
  H      375.134     147.097      39.726
  H      376.612     147.206      40.651
  H      375.759     148.660      40.194

 6  7  8  9  10  11  12  13  14  15  16  26  31  32  33  34  35 0
 6-311+G(2d,p)
 ****
 36  37 0
 6-311+G(2d,p)
 ****
 1  2  3  4  5  17  18  19  20  21  22  23  24  25 0
 3-21G
 ****
 27  28  29  30  38  39  40  41  42  43  44  45 0
 3-21G
 ****


