%nproc=1
%NoSave
%Mem=1900MB
#P OB98/GEN NMR

erre ene a

0 1
  C     -108.616    -235.437    -592.445
  O     -108.945    -236.112    -591.222
  P     -108.424    -235.455    -589.854
  C     -108.871    -232.914    -589.498
  O     -109.399    -234.236    -589.470
  C     -109.920    -231.914    -589.000
  O     -111.094    -231.931    -589.844
  C     -110.431    -232.238    -587.602
  O     -109.487    -231.818    -586.627
  C     -111.748    -231.466    -587.559
  O     -111.563    -230.123    -587.066
  C     -112.192    -231.457    -589.037
  N     -113.394    -232.244    -589.266
  C     -114.479    -231.963    -588.421
  O     -114.380    -231.097    -587.538
  N     -115.644    -232.671    -588.594
  C     -115.705    -233.605    -589.494
  N     -116.882    -234.280    -589.603
  C     -114.574    -233.954    -590.378
  C     -113.459    -233.245    -590.213
  O     -107.070    -234.724    -590.293
  O     -108.186    -236.448    -588.762
  H     -111.402    -230.224    -586.105
  H     -106.426    -234.734    -589.562
  H     -114.674    -234.741    -591.111
  H     -112.578    -233.434    -590.814
  H     -112.407    -230.426    -589.369
  H     -112.467    -231.947    -586.892
  H     -110.635    -233.313    -587.506
  H     -109.483    -230.908    -589.018
  H     -117.637    -234.008    -588.980
  H     -108.566    -232.650    -590.520
  H     -117.038    -235.023    -590.272
  H     -107.965    -232.868    -588.886
  P     -109.140    -232.844    -585.439
  C     -108.456    -235.319    -585.442
  O     -108.475    -234.109    -586.179
  O     -110.591    -233.409    -585.048
  O     -108.410    -232.298    -584.260
  H     -110.522    -233.988    -584.262
  H     -108.170    -236.135    -586.113
  H     -109.434    -235.538    -585.015
  H     -107.706    -235.256    -584.642
  H     -109.023    -235.980    -593.273
  H     -107.552    -235.378    -592.545
  H     -109.028    -234.449    -592.429

 3  4  5  6  7  8  9  10  11  12  13  21  23  27  28  29  30  32 0
 6-311+G(2d,p)
 ****
 34  35 0
 6-311+G(2d,p)
 ****
 1  2  14  15  16  17  18  19  20  22  24  25  26 0
 3-21G
 ****
 31  33  36  37  38  39  40  41  42  43  44  45  46 0
 3-21G
 ****


