%nproc=1
%NoSave
%Mem=1900MB
#P OB98/GEN NMR

erre ene a

0 1
  C      -99.523    -173.587      57.655
  O     -100.754    -172.950      57.938
  H      -99.296    -174.283      58.469
  H      -98.723    -172.845      57.600
  H      -99.582    -174.149      56.720
  P     -101.398    -171.978      56.838
  C     -103.699    -172.516      57.875
  O     -102.827    -171.500      57.399
  C     -105.105    -171.953      58.114
  O     -105.098    -171.199      59.356
  C     -105.597    -171.019      56.999
  O     -106.995    -171.220      56.802
  C     -105.349    -169.634      57.570
  O     -106.225    -168.655      57.010
  C     -105.566    -169.866      59.066
  N     -105.389    -164.995      60.406
  C     -106.310    -165.672      59.633
  N     -107.330    -164.947      59.125
  N     -106.240    -166.953      59.376
  C     -105.182    -167.561      59.972
  C     -104.203    -167.004      60.755
  C     -104.280    -165.580      61.016
  O     -103.483    -164.919      61.677
  N     -103.283    -167.944      61.157
  C     -103.706    -169.070      60.610
  N     -104.851    -168.888      59.870
  O     -101.428    -172.533      55.447
  O     -100.514    -170.649      56.920
  H     -106.042    -167.811      57.477
  H      -99.909    -170.584      56.159
  H     -105.484    -164.006      60.562
  H     -103.229    -170.034      60.715
  H     -106.624    -169.801      59.351
  H     -104.315    -169.329      57.367
  H     -107.458    -163.960      59.301
  H     -105.066    -171.181      56.063
  H     -108.037    -165.423      58.577
  H     -105.798    -172.792      58.255
  H     -103.294    -172.907      58.814
  H     -103.742    -173.332      57.141
  P     -107.525    -171.633      55.344
  C     -109.418    -173.106      56.273
  O     -109.088    -172.001      55.445
  O     -106.690    -172.637      54.619
  O     -107.545    -170.230      54.561
  H     -107.316    -170.391      53.626
  H     -110.477    -173.255      56.263
  H     -109.095    -172.911      57.274
  H     -108.930    -173.985      55.906

 6  7  8  9  10  11  12  13  14  15  26  29  33  34 0
 6-311+G(2d,p)
 ****
 36  38  39  40  41 0
 6-311+G(2d,p)
 ****
 1  2  3  4  5  16  17  18  19  20  21  22  23  24  25 0
 3-21G
 ****
 27  28  30  31  32  35  37  42  43  44  45  46  47 0
 3-21G
 ****
 48  49 0
 3-21G
 ****


