%nproc=1
%NoSave
%Mem=1900MB
#P OB98/GEN NMR

erre ene a

0 1
  C     -821.267    1332.084     604.967
  O     -821.966    1330.860     604.713
  P     -823.504    1330.734     605.140
  C     -822.829    1329.737     607.437
  O     -823.635    1329.600     606.269
  C     -823.582    1329.235     608.667
  O     -824.809    1329.987     608.871
  C     -824.045    1327.785     608.547
  O     -823.015    1326.799     608.566
  C     -825.117    1327.688     609.590
  O     -824.590    1327.468     610.882
  C     -825.763    1329.095     609.510
  N     -827.054    1329.095     608.797
  C     -828.033    1328.283     609.328
  O     -827.878    1327.574     610.321
  N     -829.239    1328.306     608.661
  C     -829.519    1329.000     607.529
  O     -830.595    1328.953     606.956
  C     -828.417    1329.817     606.997
  C     -827.248    1329.826     607.637
  O     -824.492    1330.630     604.015
  O     -823.761    1332.077     605.970
  H     -825.317    1327.563     611.528
  H     -824.640    1332.419     605.722
  H     -829.981    1327.734     609.047
  H     -828.608    1330.374     606.086
  H     -826.419    1330.427     607.261
  H     -825.943    1329.495     610.517
  H     -825.806    1326.861     609.379
  H     -824.528    1327.676     607.558
  H     -822.958    1329.386     609.552
  H     -822.549    1330.799     607.571
  H     -821.890    1329.194     607.288
  P     -822.211    1326.331     607.257
  C     -823.774    1324.294     606.863
  O     -822.451    1324.768     607.065
  O     -820.817    1326.837     607.089
  O     -823.128    1326.951     606.080
  H     -822.542    1327.201     605.343
  H     -823.759    1323.215     606.764
  H     -824.198    1324.731     605.935
  H     -824.402    1324.563     607.729
  H     -820.258    1331.997     604.622
  H     -821.268    1332.284     606.018
  H     -821.753    1332.886     604.451

 3  4  5  6  7  8  9  10  11  12  13  23  28  29  30  31  32 0
 6-311+G(2d,p)
 ****
 33  34 0
 6-311+G(2d,p)
 ****
 1  2  14  15  16  17  18  19  20  21  22  24  25  26  27 0
 3-21G
 ****
 35  36  37  38  39  40  41  42  43  44  45 0
 3-21G
 ****


