%nproc=1
%NoSave
%Mem=1900MB
#P OB98/GEN NMR

erre ene a

0 1
  C      139.730     685.321    -198.263
  O      138.351     685.403    -197.949
  H      140.137     686.324    -198.430
  H      140.259     684.859    -197.422
  H      139.877     684.707    -199.156
  P      137.387     686.044    -199.059
  C      136.429     683.812    -199.986
  O      137.266     684.940    -200.219
  C      136.913     682.639    -200.842
  O      138.278     682.306    -200.502
  C      136.115     681.357    -200.651
  O      134.904     681.356    -201.395
  C      137.095     680.327    -201.194
  O      137.088     680.360    -202.633
  C      138.433     680.863    -200.658
  N      140.250     676.683    -198.320
  C      139.957     676.939    -199.617
  N      139.471     678.077    -200.152
  C      139.291     679.015    -199.209
  C      139.533     678.896    -197.848
  C      140.047     677.660    -197.407
  N      140.328     677.392    -196.076
  N      139.188     680.063    -197.188
  C      138.775     680.871    -198.134
  N      138.811     680.289    -199.371
  O      138.301     687.181    -199.735
  O      136.086     686.575    -198.562
  H      137.753     679.711    -202.935
  H      137.732     687.838    -200.178
  H      140.130     676.120    -200.310
  H      138.450     681.896    -197.977
  H      139.264     680.694    -201.352
  H      136.861     679.307    -200.892
  H      135.931     681.142    -199.583
  H      136.899     682.956    -201.900
  H      135.399     684.059    -200.257
  H      140.513     676.424    -195.849
  H      140.034     678.054    -195.382
  H      136.472     683.552    -198.923
  P      133.541     681.611    -200.588
  C      132.482     683.036    -202.509
  O      132.955     682.999    -201.153
  O      134.044     681.993    -199.128
  O      132.589     680.460    -200.590
  H      133.367     681.781    -198.455
  H      132.126     684.019    -202.736
  H      131.685     682.332    -202.628
  H      133.282     682.784    -203.173

 6  7  8  9  10  11  12  13  14  15  25  28  32  33  34  35 0
 6-311+G(2d,p)
 ****
 36  39  40 0
 6-311+G(2d,p)
 ****
 1  2  3  4  5  16  17  18  19  20  21  22  23  24 0
 3-21G
 ****
 26  27  29  30  31  37  38  41  42  43  44  45  46  47 0
 3-21G
 ****
 48 0
 3-21G
 ****


