%nproc=1
%NoSave
%Mem=1900MB
#P OB98/GEN NMR

erre ene a

0 1
  C     -619.286     988.614    -429.039
  O     -619.450     989.852    -428.379
  H     -619.461     988.776    -430.111
  H     -620.023     987.889    -428.681
  H     -618.277     988.229    -428.904
  P     -619.154     989.916    -426.794
  C     -617.292     991.695    -426.762
  O     -617.605     990.315    -426.634
  C     -616.806     992.000    -428.181
  O     -617.871     991.697    -429.122
  C     -616.418     993.470    -428.382
  O     -615.278     993.528    -429.250
  C     -617.622     994.064    -429.104
  O     -617.279     995.192    -429.901
  C     -618.125     992.869    -429.921
  N     -621.511     995.365    -432.715
  C     -620.128     995.439    -432.701
  N     -619.562     996.336    -433.546
  N     -619.363     994.707    -431.927
  C     -620.061     993.845    -431.147
  C     -621.420     993.677    -431.064
  C     -622.256     994.509    -431.913
  O     -623.479     994.490    -431.958
  N     -621.747     992.731    -430.123
  C     -620.588     992.320    -429.645
  N     -619.541     992.977    -430.229
  O     -619.566     988.708    -426.019
  O     -619.925     991.222    -426.312
  H     -616.774     995.808    -429.320
  H     -620.778     991.003    -425.896
  H     -622.046     995.958    -433.309
  H     -620.465     991.575    -428.869
  H     -617.591     992.761    -430.876
  H     -618.370     994.375    -428.364
  H     -620.086     996.916    -434.176
  H     -616.190     993.985    -427.464
  H     -618.548     996.393    -433.568
  H     -615.970     991.336    -428.412
  H     -616.512     991.939    -426.038
  H     -618.181     992.290    -426.538
  P     -613.824     993.766    -428.599
  C     -612.570     991.647    -429.363
  O     -613.171     992.336    -428.273
  O     -613.776     994.756    -427.484
  O     -612.952     994.260    -429.859
  H     -612.268     994.864    -429.536
  H     -612.174     990.714    -429.020
  H     -611.779     992.243    -429.769
  H     -613.305     991.466    -430.119

 6  7  8  9  10  11  12  13  14  15  26  29  33  34 0
 6-311+G(2d,p)
 ****
 36  38  39  40  41 0
 6-311+G(2d,p)
 ****
 1  2  3  4  5  16  17  18  19  20  21  22  23  24  25 0
 3-21G
 ****
 27  28  30  31  32  35  37  42  43  44  45  46  47 0
 3-21G
 ****
 48  49 0
 3-21G
 ****


