%nproc=1
%NoSave
%Mem=1900MB
#P OB98/GEN NMR

erre ene a

0 1
  C     -240.022     401.042    -514.804
  O     -239.447     401.212    -516.088
  P     -238.550     399.998    -516.660
  C     -236.697     398.733    -515.353
  O     -237.198     399.979    -515.803
  C     -235.512     398.935    -514.398
  O     -235.921     399.728    -513.276
  C     -234.935     397.657    -513.826
  O     -234.132     396.973    -514.782
  C     -234.151     398.231    -512.637
  O     -232.910     398.778    -513.081
  C     -235.094     399.342    -512.147
  N     -237.295     400.788    -507.748
  C     -236.469     401.421    -508.600
  N     -235.896     400.968    -509.735
  C     -236.279     399.710    -509.975
  C     -237.105     398.908    -509.194
  C     -237.624     399.497    -508.034
  N     -238.487     398.831    -507.168
  N     -237.254     397.661    -509.754
  C     -236.535     397.700    -510.852
  N     -235.938     398.913    -511.053
  O     -238.080     400.541    -518.086
  O     -239.271     398.684    -516.761
  H     -232.359     398.030    -513.408
  H     -238.005     399.814    -518.735
  H     -236.217     402.458    -508.325
  H     -236.424     396.878    -511.557
  H     -234.546     400.231    -511.820
  H     -233.923     397.470    -511.881
  H     -235.729     396.987    -513.466
  H     -234.733     399.493    -514.955
  H     -236.362     398.136    -516.211
  H     -238.692     399.268    -506.291
  H     -238.614     397.845    -507.311
  H     -237.510     398.170    -514.851
  P     -233.887     395.405    -514.548
  C     -232.534     394.137    -512.760
  O     -232.708     395.357    -513.465
  O     -233.153     394.980    -515.911
  O     -235.129     394.625    -514.214
  H     -232.412     395.591    -516.118
  H     -231.680     394.225    -512.097
  H     -232.366     393.311    -513.467
  H     -233.427     393.922    -512.162
  H     -240.587     401.914    -514.548
  H     -239.246     400.895    -514.082
  H     -240.667     400.189    -514.812

 3  4  5  6  7  8  9  10  11  12  22  25  29  30  31  32 0
 6-311+G(2d,p)
 ****
 33  36  37 0
 6-311+G(2d,p)
 ****
 1  2  13  14  15  16  17  18  19  20  21  23  24  26 0
 3-21G
 ****
 27  28  34  35  38  39  40  41  42  43  44  45  46  47  48 0
 3-21G
 ****


