%nproc=1
%NoSave
%Mem=1900MB
#P OB98/GEN NMR

erre ene a

0 1
  C     -125.579     204.435    -153.121
  O     -125.823     203.026    -153.187
  P     -126.609     202.492    -154.486
  C     -124.644     200.874    -155.036
  O     -126.039     201.027    -154.816
  C     -124.220     199.422    -154.827
  O     -124.088     199.117    -153.423
  C     -125.213     198.398    -155.361
  O     -125.082     198.224    -156.764
  C     -124.765     197.142    -154.621
  O     -123.651     196.539    -155.303
  C     -124.324     197.699    -153.259
  N     -125.202     195.878    -148.610
  C     -124.042     195.875    -149.357
  N     -122.952     195.337    -148.769
  N     -123.955     196.361    -150.566
  C     -125.115     196.896    -151.017
  C     -126.329     196.955    -150.375
  C     -126.422     196.388    -149.045
  O     -127.431     196.331    -148.353
  N     -127.275     197.582    -151.143
  C     -126.630     197.928    -152.238
  N     -125.316     197.520    -152.215
  O     -126.006     203.395    -155.663
  O     -128.092     202.608    -154.391
  H     -123.208     195.951    -154.658
  H     -126.656     203.476    -156.386
  H     -125.215     195.485    -147.685
  H     -127.059     198.471    -153.070
  H     -123.384     197.251    -152.919
  H     -125.552     196.381    -154.568
  H     -122.930     195.011    -147.815
  H     -126.239     198.654    -155.070
  H     -122.081     195.359    -149.286
  H     -123.240     199.279    -155.305
  H     -124.087     201.517    -154.351
  H     -124.404     201.208    -156.053
  P     -126.234     197.385    -157.507
  C     -127.018     199.132    -159.256
  O     -126.282     197.955    -159.002
  O     -127.576     197.938    -156.835
  O     -126.107     195.904    -157.368
  H     -128.270     197.248    -156.847
  H     -126.847     199.884    -158.476
  H     -128.086     198.898    -159.304
  H     -126.705     199.547    -160.216
  H     -125.053     204.664    -152.218
  H     -126.512     204.959    -153.134
  H     -124.990     204.735    -153.962

 3  4  5  6  7  8  9  10  11  12  23  26  30  31  33  0
 6-311+G(2d,p)
 ****
 35  36  37  38 0
 6-311+G(2d,p)
 ****
 1  2  13  14  15  16  17  18  19  20  21  22  24  25  27  28  29 0
 3-21G
 ****
 32  34  39  40  41  42  43  44  45  46  47  48  49 0
 3-21G
 ****


