%nproc=1
%NoSave
%Mem=1900MB
#P OB98/GEN NMR

erre ene a

0 1
  C        5.453     -18.748    -352.139
  O        4.400     -18.000    -351.530
  P        3.187     -18.861    -350.924
  C        1.994     -19.194    -353.201
  O        2.636     -19.811    -352.096
  C        1.030     -20.165    -353.891
  O       -0.011     -20.604    -352.966
  C        0.320     -19.563    -355.114
  O        0.163     -20.626    -356.064
  C       -1.023     -19.156    -354.533
  O       -2.009     -18.907    -355.521
  C       -1.276     -20.341    -353.610
  N       -5.689     -22.071    -351.729
  C       -4.893     -22.523    -352.723
  N       -3.731     -22.001    -353.166
  C       -3.409     -20.901    -352.465
  C       -4.122     -20.319    -351.427
  C       -5.318     -20.957    -351.058
  N       -6.148     -20.495    -350.062
  N       -3.479     -19.179    -350.971
  C       -2.441     -19.044    -351.777
  N       -2.313     -20.101    -352.633
  O        2.025     -17.780    -350.725
  O        3.532     -19.566    -349.655
  H       -1.695     -18.213    -356.135
  H        1.982     -17.490    -349.796
  H       -5.235     -23.420    -353.229
  H       -1.754     -18.209    -351.779
  H       -1.559     -21.245    -354.164
  H       -0.900     -18.232    -353.953
  H        0.871     -18.744    -355.584
  H        1.596     -21.057    -354.191
  H        2.738     -18.853    -353.925
  H       -6.990     -21.017    -349.872
  H       -5.913     -19.659    -349.547
  H        1.470     -18.296    -352.856
  P        1.306     -20.854    -357.167
  C       -0.014     -19.627    -358.992
  O        1.142     -19.617    -358.177
  O        0.655     -22.043    -358.024
  O        2.672     -21.150    -356.651
  H       -0.265     -21.835    -358.271
  H       -0.043     -18.697    -359.567
  H       -0.914     -19.692    -358.375
  H        0.028     -20.469    -359.687
  H        6.202     -18.077    -352.505
  H        5.059     -19.321    -352.952
  H        5.887     -19.406    -351.416

 3  4  5  6  7  8  9  10  11  12  22  25  29  30  31  32 0
 6-311+G(2d,p)
 ****
 33  36  37 0
 6-311+G(2d,p)
 ****
 1  2  13  14  15  16  17  18  19  20  21  23  24  26 0
 3-21G
 ****
 27  28  34  35  38  39  40  41  42  43  44  45  46  47  48 0
 3-21G
 ****


