%nproc=1
%NoSave
%Mem=1900MB
#P OB98/GEN NMR

erre ene a

0 1
  C     -111.423      -4.066     105.306
  O     -110.761      -3.023     104.583
  P     -109.800      -3.332     103.336
  C     -110.742      -1.827     101.474
  O     -109.665      -2.036     102.385
  C     -110.515      -0.632     100.540
  O     -110.821       0.621     101.214
  C     -109.086      -0.498      99.989
  O     -109.216       0.093      98.695
  C     -108.462       0.486     100.965
  O     -107.283       1.110     100.462
  C     -109.629       1.433     101.198
  N     -108.682       6.055     103.202
  C     -108.936       5.662     101.938
  N     -109.215       4.422     101.484
  C     -109.267       3.539     102.496
  C     -109.048       3.797     103.843
  C     -108.729       5.122     104.186
  N     -108.427       5.522     105.469
  N     -109.153       2.634     104.587
  C     -109.427       1.693     103.706
  N     -109.511       2.193     102.425
  O     -110.140      -4.594     102.597
  O     -108.335      -3.464     103.985
  H     -107.515       1.569      99.633
  H     -107.892      -4.253     103.619
  H     -108.899       6.447     101.185
  H     -109.550       0.638     103.923
  H     -109.724       2.151     100.367
  H     -108.186      -0.049     101.886
  H     -108.552      -1.451      99.935
  H     -111.234      -0.722      99.713
  H     -111.661      -1.671     102.051
  H     -108.122       6.485     105.602
  H     -108.329       4.823     106.193
  H     -110.881      -2.742     100.878
  P     -108.321      -0.396      97.447
  C     -110.284      -0.014      95.845
  O     -108.934       0.305      96.143
  O     -108.150      -1.880      97.341
  O     -106.918       0.347      97.641
  H     -106.231      -0.113      97.123
  H     -110.339      -1.011      95.407
  H     -110.669       0.716      95.129
  H     -110.909       0.020      96.747
  H     -112.009      -3.638     106.092
  H     -110.694      -4.728     105.724
  H     -112.061      -4.611     104.642

 3  4  5  6  7  8  9  10  11  12  22  25  29  30  31  32 0
 6-311+G(2d,p)
 ****
 33  36  37 0
 6-311+G(2d,p)
 ****
 1  2  13  14  15  16  17  18  19  20  21  23  24  26 0
 3-21G
 ****
 27  28  34  35  38  39  40  41  42  43  44  45  46  47  48 0
 3-21G
 ****


