%nproc=1
%NoSave
%Mem=1900MB
#P OB98/GEN NMR

erre ene a

0 1
  C     -323.932      37.891     -27.658
  O     -325.202      38.048     -27.058
  H     -323.833      36.858     -28.004
  H     -323.137      38.096     -26.936
  H     -323.832      38.559     -28.519
  P     -325.589      39.484     -26.465
  C     -328.026      39.513     -27.312
  O     -327.168      39.437     -26.184
  C     -329.466      39.723     -26.860
  O     -330.077      38.463     -26.519
  C     -329.605      40.617     -25.626
  O     -329.528      41.985     -25.995
  C     -330.984      40.202     -25.140
  O     -331.993      40.818     -25.962
  C     -330.953      38.684     -25.379
  N     -331.525      37.612     -20.458
  C     -332.196      38.522     -21.251
  N     -333.121      39.289     -20.631
  N     -331.966      38.684     -22.526
  C     -330.964      37.902     -22.991
  C     -330.216      36.977     -22.303
  C     -330.519      36.766     -20.902
  O     -329.961      35.958     -20.167
  N     -329.243      36.420     -23.096
  C     -329.431      36.983     -24.273
  N     -330.454      37.904     -24.258
  O     -325.155      40.673     -27.271
  O     -324.951      39.485     -24.998
  H     -331.870      41.781     -25.877
  H     -324.055      39.871     -25.003
  H     -331.737      37.547     -19.474
  H     -328.857      36.761     -25.164
  H     -331.939      38.285     -25.640
  H     -331.180      40.495     -24.109
  H     -333.135      39.403     -19.625
  H     -328.873      40.358     -24.852
  H     -333.590      39.993     -21.183
  H     -330.029      40.136     -27.707
  H     -327.934      38.571     -27.863
  H     -327.724      40.334     -27.966
  P     -328.148      42.798     -25.879
  C     -328.350      43.818     -28.245
  O     -328.333      44.065     -26.845
  O     -326.921      41.990     -26.137
  O     -328.192      43.460     -24.427
  H     -327.820      42.883     -23.716
  H     -328.479      44.742     -28.769
  H     -329.159      43.158     -28.481
  H     -327.425      43.367     -28.539

 6  7  8  9  10  11  12  13  14  15  26  29  33  34 0
 6-311+G(2d,p)
 ****
 36  38  39  40  41 0
 6-311+G(2d,p)
 ****
 1  2  3  4  5  16  17  18  19  20  21  22  23  24  25 0
 3-21G
 ****
 27  28  30  31  32  35  37  42  43  44  45  46  47 0
 3-21G
 ****
 48  49 0
 3-21G
 ****


