%nproc=1
%NoSave
%Mem=1900MB
#P OB98/GEN NMR

erre ene a

0 1
  C      255.887    -166.671     396.006
  O      257.271    -166.518     395.760
  P      258.262    -166.613     397.034
  C      258.184    -164.013     397.117
  O      258.115    -165.234     397.851
  C      258.625    -162.861     398.020
  O      258.846    -161.684     397.198
  C      257.609    -162.471     399.118
  O      258.377    -162.066     400.259
  C      256.897    -161.292     398.485
  O      256.175    -160.483     399.396
  C      258.073    -160.613     397.782
  N      256.343    -155.867     396.886
  C      256.747    -156.484     398.028
  N      257.201    -157.744     398.185
  C      257.229    -158.391     396.998
  C      256.842    -157.901     395.772
  C      256.375    -156.572     395.741
  N      255.960    -155.946     394.572
  N      256.991    -158.862     394.786
  C      257.464    -159.915     395.420
  N      257.646    -159.663     396.759
  O      259.710    -166.496     396.365
  O      258.112    -167.861     397.857
  H      255.693    -159.781     398.914
  H      260.352    -167.089     396.816
  H      256.699    -155.885     398.939
  H      257.671    -160.870     394.961
  H      258.712    -160.070     398.481
  H      256.181    -161.661     397.746
  H      256.949    -163.291     399.404
  H      259.585    -163.126     398.478
  H      257.181    -163.782     396.732
  H      255.460    -155.077     394.689
  H      255.796    -156.542     393.773
  H      258.857    -164.134     396.269
  P      257.805    -162.372     401.728
  C      257.314    -159.848     401.862
  O      256.800    -161.146     402.015
  O      259.061    -161.974     402.641
  O      257.287    -163.750     401.956
  H      259.405    -161.086     402.413
  H      256.517    -159.119     401.983
  H      257.752    -159.723     400.855
  H      258.096    -159.653     402.616
  H      255.350    -166.587     395.085
  H      255.558    -165.909     396.681
  H      255.706    -167.633     396.438

 3  4  5  6  7  8  9  10  11  12  22  25  29  30  31  32 0
 6-311+G(2d,p)
 ****
 33  36  37 0
 6-311+G(2d,p)
 ****
 1  2  13  14  15  16  17  18  19  20  21  23  24  26 0
 3-21G
 ****
 27  28  34  35  38  39  40  41  42  43  44  45  46  47  48 0
 3-21G
 ****


