%nproc=1
%NoSave
%Mem=1900MB
#P OB98/GEN NMR

erre ene a

0 1
  C       62.812      36.741     437.802
  O       62.493      35.988     436.646
  H       62.089      36.496     438.588
  H       62.741      37.810     437.579
  H       63.819      36.496     438.154
  P       63.536      36.062     435.427
  C       61.989      36.383     433.327
  O       62.745      35.506     434.147
  C       60.544      35.894     433.207
  O       59.787      36.396     434.339
  C       59.836      36.366     431.930
  O       58.953      35.330     431.494
  C       59.017      37.559     432.405
  O       57.917      37.826     431.544
  C       58.648      37.122     433.832
  N       58.301      38.254     434.690
  C       56.937      38.530     434.848
  O       56.096      37.842     434.261
  N       56.565      39.598     435.619
  C       57.467      40.365     436.141
  N       57.029      41.425     436.876
  C       58.918      40.140     435.966
  C       59.260      39.070     435.246
  O       64.552      34.879     435.791
  O       64.183      37.395     435.248
  H       57.338      38.496     431.972
  H       64.107      34.063     436.079
  H       59.634      40.815     436.412
  H       60.302      38.825     435.075
  H       57.794      36.430     433.811
  H       59.647      38.456     432.435
  H       60.536      36.621     431.130
  H       60.534      34.800     433.279
  H       56.024      41.555     436.950
  H       62.433      36.445     432.329
  H       57.643      42.118     437.281
  H       62.019      37.379     433.779
  P       58.955      34.890     429.954
  C       56.544      34.013     429.592
  O       57.922      33.678     429.748
  O       60.299      34.690     429.337
  O       58.190      36.113     429.239
  H       58.652      36.304     428.398
  H       55.972      33.118     429.464
  H       56.424      34.639     428.732
  H       56.203      34.533     430.462

 6  7  8  9  10  11  12  13  14  15  16  26  30  31  32  33  35 0
 6-311+G(2d,p)
 ****
 37  38 0
 6-311+G(2d,p)
 ****
 1  2  3  4  5  17  18  19  20  21  22  23  24  25 0
 3-21G
 ****
 27  28  29  34  36  39  40  41  42  43  44  45  46 0
 3-21G
 ****


