%nproc=1
%NoSave
%Mem=1900MB
#P OB98/GEN NMR

erre ene a

0 1
  C      -14.330     173.135    -106.531
  O      -13.647     172.769    -105.329
  P      -14.530     172.671    -103.991
  C      -14.727     170.130    -103.526
  O      -14.087     171.351    -103.188
  C      -14.127     168.951    -102.751
  O      -12.694     168.848    -102.992
  C      -14.317     169.052    -101.235
  O      -14.472     167.721    -100.725
  C      -12.987     169.603    -100.760
  O      -12.784     169.360     -99.369
  C      -12.037     168.876    -101.709
  N       -7.081     168.499    -100.535
  C       -8.129     167.679    -100.307
  N       -9.428     167.864    -100.633
  C       -9.585     169.021    -101.299
  C       -8.614     169.963    -101.598
  C       -7.304     169.668    -101.184
  N       -6.240     170.515    -101.391
  N       -9.173     171.044    -102.251
  C      -10.457     170.759    -102.339
  N      -10.748     169.536    -101.807
  O      -15.988     172.305    -104.544
  O      -14.551     173.929    -103.188
  H      -13.602     169.616     -98.892
  H      -16.578     173.076    -104.459
  H       -7.896     166.752     -99.787
  H      -11.212     171.401    -102.769
  H      -11.846     167.840    -101.397
  H      -12.952     170.687    -100.926
  H      -15.164     169.670    -100.920
  H      -14.589     168.026    -103.119
  H      -14.628     169.939    -104.600
  H       -5.338     170.242    -101.037
  H       -6.402     171.409    -101.832
  H      -15.802     170.227    -103.336
  P      -15.934     167.317    -100.208
  C      -17.091     165.827    -101.991
  O      -16.256     165.886    -100.850
  O      -16.904     168.316    -101.001
  O      -16.111     167.421     -98.729
  H      -17.731     168.448    -100.501
  H      -16.690     165.081    -102.683
  H      -17.153     166.790    -102.507
  H      -18.094     165.522    -101.682
  H      -13.633     173.164    -107.342
  H      -14.775     174.100    -106.408
  H      -15.093     172.415    -106.741

 3  4  5  6  7  8  9  10  11  12  22  25  29  30  31  32 0
 6-311+G(2d,p)
 ****
 33  36  37 0
 6-311+G(2d,p)
 ****
 1  2  13  14  15  16  17  18  19  20  21  23  24  26 0
 3-21G
 ****
 27  28  34  35  38  39  40  41  42  43  44  45  46  47  48 0
 3-21G
 ****


