%nproc=1
%NoSave
%Mem=1900MB
#P OB98/GEN NMR

erre ene a

0 1
  C     -147.630    -145.586      43.841
  O     -148.302    -144.335      43.959
  P     -147.663    -143.052      43.244
  C     -149.572    -142.669      41.452
  O     -148.219    -142.929      41.753
  C     -149.804    -141.149      41.433
  O     -149.096    -140.549      40.327
  C     -151.273    -140.765      41.286
  O     -151.938    -140.718      42.535
  C     -151.178    -139.418      40.599
  O     -150.830    -138.394      41.550
  C     -150.008    -139.662      39.617
  N     -150.317    -140.259      38.300
  C     -151.345    -139.732      37.523
  O     -152.045    -138.778      37.858
  N     -151.554    -140.333      36.311
  C     -150.753    -141.271      35.728
  O     -150.955    -141.732      34.613
  C     -149.594    -141.688      36.524
  C     -149.438    -141.185      37.751
  O     -146.129    -143.451      43.049
  O     -147.817    -141.777      44.013
  H     -149.904    -138.545      41.811
  H     -145.555    -142.867      43.579
  H     -152.339    -140.011      35.767
  H     -148.906    -142.396      36.082
  H     -148.583    -141.489      38.350
  H     -149.469    -138.728      39.420
  H     -152.133    -139.123      40.173
  H     -151.778    -141.456      40.603
  H     -149.400    -140.726      42.363
  H     -150.232    -143.138      42.186
  H     -149.822    -143.102      40.478
  P     -153.091    -141.778      42.866
  C     -151.785    -143.491      44.257
  O     -152.350    -143.197      42.995
  O     -154.284    -141.751      41.972
  O     -153.476    -141.450      44.389
  H     -154.260    -140.856      44.430
  H     -151.456    -144.535      44.259
  H     -152.523    -143.351      45.051
  H     -150.919    -142.850      44.436
  H     -148.179    -146.337      44.370
  H     -146.647    -145.504      44.256
  H     -147.559    -145.857      42.808

 3  4  5  6  7  8  9  10  11  12  13  23  28  29  30  31  32 0
 6-311+G(2d,p)
 ****
 33  34 0
 6-311+G(2d,p)
 ****
 1  2  14  15  16  17  18  19  20  21  22  24  25  26  27 0
 3-21G
 ****
 35  36  37  38  39  40  41  42  43  44  45 0
 3-21G
 ****


