%nproc=1
%NoSave
%Mem=1900MB
#P OB98/GEN NMR

erre ene a

0 1
  C      -35.766     -68.646      30.935
  O      -35.910     -69.989      31.428
  P      -34.950     -70.494      32.614
  C      -34.859     -70.270      35.219
  O      -35.557     -69.996      34.013
  C      -35.801     -70.126      36.417
  O      -36.406     -68.812      36.431
  C      -36.970     -71.101      36.418
  O      -36.574     -72.401      36.820
  C      -37.923     -70.427      37.398
  O      -37.569     -70.739      38.757
  C      -37.680     -68.934      37.102
  N      -38.755     -68.333      36.319
  C      -39.636     -67.508      37.008
  O      -39.576     -67.324      38.223
  N      -40.620     -66.925      36.257
  C      -40.845     -67.136      34.926
  O      -41.756     -66.598      34.311
  C      -39.931     -68.081      34.269
  C      -38.948     -68.631      34.985
  O      -33.678     -69.532      32.444
  O      -34.541     -71.929      32.549
  H      -37.358     -71.694      38.778
  H      -32.880     -69.987      32.774
  H      -41.252     -66.300      36.732
  H      -40.088     -68.293      33.220
  H      -38.264     -69.330      34.513
  H      -37.578     -68.375      38.040
  H      -38.961     -70.744      37.256
  H      -37.435     -71.127      35.426
  H      -35.207     -70.236      37.334
  H      -34.033     -69.562      35.326
  H      -34.449     -71.284      35.171
  P      -36.019     -73.374      35.669
  C      -33.615     -73.912      34.796
  O      -34.425     -73.230      35.728
  O      -36.461     -72.573      34.355
  O      -36.561     -74.762      35.764
  H      -36.436     -71.609      34.487
  H      -34.106     -73.999      33.823
  H      -33.386     -74.911      35.178
  H      -32.680     -73.358      34.670
  H      -36.476     -68.475      30.153
  H      -34.776     -68.511      30.553
  H      -35.939     -67.953      31.732

 3  4  5  6  7  8  9  10  11  12  13  23  28  29  30  31  32 0
 6-311+G(2d,p)
 ****
 33  34 0
 6-311+G(2d,p)
 ****
 1  2  14  15  16  17  18  19  20  21  22  24  25  26 0
 3-21G
 ****
 27  35  36  37  38  39  40  41  42  43  44  45 0
 3-21G
 ****


