%nproc=1
%NoSave
%Mem=1900MB
#P OB98/GEN NMR

erre ene a

0 1
  C     -535.512    -554.682     -22.397
  O     -536.298    -553.637     -22.954
  P     -537.549    -553.100     -22.116
  C     -536.154    -551.526     -20.587
  O     -537.026    -552.653     -20.672
  C     -536.944    -550.251     -20.243
  O     -537.614    -550.433     -18.966
  C     -536.066    -548.994     -20.132
  O     -536.813    -547.859     -20.584
  C     -535.857    -548.846     -18.641
  O     -535.544    -547.500     -18.286
  C     -537.211    -549.333     -18.105
  N     -538.600    -548.216     -13.372
  C     -539.067    -547.708     -14.565
  N     -539.964    -546.707     -14.483
  N     -538.683    -548.142     -15.733
  C     -537.784    -549.149     -15.675
  C     -537.249    -549.753     -14.551
  C     -537.663    -549.250     -13.257
  O     -537.269    -549.639     -12.155
  N     -536.382    -550.755     -14.874
  C     -536.347    -550.751     -16.194
  N     -537.147    -549.769     -16.729
  O     -538.385    -554.435     -21.817
  O     -538.390    -552.087     -22.830
  H     -535.453    -547.466     -17.319
  H     -539.181    -554.466     -22.389
  H     -538.910    -547.834     -12.503
  H     -535.751    -551.406     -16.817
  H     -537.979    -548.557     -18.190
  H     -535.037    -549.490     -18.304
  H     -540.248    -546.269     -13.611
  H     -535.114    -549.063     -20.679
  H     -540.297    -546.280     -15.344
  H     -537.720    -550.124     -20.994
  H     -535.659    -551.390     -21.550
  H     -535.378    -551.707     -19.827
  P     -535.946    -546.591     -21.039
  C     -535.021    -547.542     -23.283
  O     -534.757    -547.157     -21.941
  O     -535.216    -546.143     -19.684
  O     -536.756    -545.489     -21.644
  H     -534.994    -545.187     -19.717
  H     -534.444    -546.905     -23.946
  H     -536.083    -547.452     -23.523
  H     -534.709    -548.586     -23.425
  H     -534.719    -554.930     -23.071
  H     -536.126    -555.544     -22.237
  H     -535.100    -554.360     -21.464

 3  4  5  6  7  8  9  10  11  12  23  26  30  31 0
 6-311+G(2d,p)
 ****
 33  35  36  37  38 0
 6-311+G(2d,p)
 ****
 1  2  13  14  15  16  17  18  19  20  21  22  24  25 0
 3-21G
 ****
 27  28  29  32  34  39  40  41  42  43  44  45  46  47  48  49 0
 3-21G
 ****


