%nproc=1
%NoSave
%Mem=1900MB
#P OB98/GEN NMR

erre ene a

0 1
  C     -402.800     320.368     160.410
  O     -403.276     319.475     159.423
  H     -403.656     320.869     160.872
  H     -402.160     321.123     159.945
  H     -402.242     319.841     161.187
  P     -402.282     318.360     158.844
  C     -403.731     316.429     159.759
  O     -403.144     317.027     158.612
  C     -404.504     315.158     159.385
  O     -405.837     315.514     158.943
  C     -403.821     314.438     158.214
  O     -404.052     313.034     158.237
  C     -404.522     315.035     157.001
  O     -404.429     314.210     155.842
  C     -405.945     315.208     157.541
  N     -409.710     316.329     154.292
  C     -409.173     315.099     154.610
  N     -409.690     314.027     153.966
  N     -408.201     314.933     155.474
  C     -407.732     316.101     155.986
  C     -408.168     317.382     155.727
  C     -409.268     317.546     154.801
  O     -409.772     318.613     154.464
  N     -407.431     318.312     156.420
  C     -406.550     317.599     157.089
  N     -406.700     316.247     156.873
  O     -401.374     317.968     160.105
  O     -401.444     318.781     157.676
  H     -404.959     314.632     155.139
  H     -400.515     317.616     159.813
  H     -410.469     316.399     153.633
  H     -405.787     318.005     157.749
  H     -406.508     314.272     157.439
  H     -404.036     315.988     156.759
  H     -410.304     314.122     153.177
  H     -402.747     314.624     158.192
  H     -409.121     313.176     153.964
  H     -404.623     314.513     160.268
  H     -404.413     317.168     160.200
  H     -402.964     316.208     160.507
  P     -402.853     312.093     158.741
  C     -404.351     310.872     160.519
  O     -403.495     310.776     159.392
  O     -402.250     312.898     159.991
  O     -401.822     311.819     157.698
  H     -401.400     313.308     159.745
  H     -404.676     309.893     160.805
  H     -405.202     311.472     160.271
  H     -403.821     311.323     161.332

 6  7  8  9  10  11  12  13  14  15  26  29  33  34 0
 6-311+G(2d,p)
 ****
 36  38  39  40  41 0
 6-311+G(2d,p)
 ****
 1  2  3  4  5  16  17  18  19  20  21  22  23  24  25 0
 3-21G
 ****
 27  28  30  31  32  35  37  42  43  44  45  46  47 0
 3-21G
 ****
 48  49 0
 3-21G
 ****


