%nproc=1
%NoSave
%Mem=1900MB
#P OB98/GEN NMR

erre ene a

0 1
  C      -87.853    -184.560      59.405
  O      -87.618    -184.714      58.020
  H      -86.923    -184.760      59.944
  H      -88.613    -185.272      59.740
  H      -88.177    -183.540      59.622
  P      -88.888    -184.521      57.058
  C      -88.490    -182.144      56.107
  O      -89.203    -182.948      57.036
  C      -89.176    -180.792      55.934
  O      -90.517    -180.961      55.424
  C      -89.293    -179.978      57.218
  O      -88.098    -179.261      57.475
  C      -90.465    -179.066      56.884
  O      -90.040    -177.956      56.065
  C      -91.386    -180.005      56.091
  N      -95.344    -179.442      59.173
  C      -94.522    -178.495      58.598
  N      -94.771    -177.204      58.911
  N      -93.531    -178.784      57.795
  C      -93.361    -180.115      57.617
  C      -94.105    -181.151      58.132
  C      -95.232    -180.812      58.975
  O      -96.047    -181.600      59.447
  N      -93.631    -182.364      57.705
  C      -92.582    -182.063      56.963
  N      -92.374    -180.711      56.884
  O      -90.100    -185.126      57.916
  O      -88.790    -185.182      55.726
  H      -90.821    -177.543      55.657
  H      -90.708    -185.593      57.312
  H      -96.110    -179.160      59.758
  H      -91.952    -182.782      56.457
  H      -91.937    -179.470      55.309
  H      -90.907    -178.634      57.782
  H      -95.309    -176.946      59.725
  H      -89.562    -180.617      58.067
  H      -94.122    -176.519      58.546
  H      -88.614    -180.233      55.175
  H      -88.459    -182.661      55.143
  H      -87.468    -181.997      56.467
  P      -87.669    -179.027      59.000
  C      -85.716    -180.669      59.478
  O      -87.110    -180.417      59.576
  O      -89.076    -178.851      59.744
  O      -86.793    -177.841      59.226
  H      -89.219    -177.911      59.965
  H      -85.496    -181.627      59.901
  H      -85.178    -179.912      60.010
  H      -85.423    -180.658      58.449

 6  7  8  9  10  11  12  13  14  15  26  29  33  34 0
 6-311+G(2d,p)
 ****
 36  38  39  40  41 0
 6-311+G(2d,p)
 ****
 1  2  3  4  5  16  17  18  19  20  21  22  23  24  25 0
 3-21G
 ****
 27  28  30  31  32  35  37  42  43  44  45  46  47 0
 3-21G
 ****
 48  49 0
 3-21G
 ****


