%nproc=1
%NoSave
%Mem=1900MB
#P OB98/GEN NMR

erre ene a

0 1
  C     -196.186     259.324     593.079
  O     -197.207     260.317     592.972
  P     -198.073     260.601     591.653
  C     -200.260     259.264     592.243
  O     -199.082     259.371     591.447
  C     -201.563     259.325     591.392
  O     -201.831     257.994     590.862
  C     -202.747     259.682     592.283
  O     -203.018     261.043     592.578
  C     -203.923     258.933     591.675
  O     -204.661     259.730     590.748
  C     -203.250     257.753     590.952
  N     -205.699     253.254     590.814
  C     -205.790     254.329     589.953
  N     -206.695     254.225     588.945
  N     -205.085     255.431     590.068
  C     -204.295     255.440     591.170
  C     -204.115     254.458     592.106
  C     -204.869     253.230     591.930
  O     -204.811     252.231     592.666
  N     -203.244     254.835     593.091
  C     -202.907     256.061     592.758
  N     -203.514     256.471     591.591
  O     -197.299     261.048     590.460
  O     -199.041     261.801     592.098
  H     -205.141     260.413     591.244
  H     -199.187     262.353     591.290
  H     -206.248     252.438     590.669
  H     -202.231     256.697     593.321
  H     -203.623     257.664     589.919
  H     -204.627     258.621     592.454
  H     -207.345     253.458     588.870
  H     -202.575     259.207     593.267
  H     -206.915     255.080     588.442
  H     -201.426     259.988     590.539
  H     -200.234     260.088     592.957
  H     -200.236     258.336     592.828
  P     -203.944     261.592     593.784
  C     -202.351     261.117     595.738
  O     -203.563     260.756     595.097
  O     -205.400     261.045     593.421
  O     -203.947     263.070     593.946
  H     -206.080     261.537     593.945
  H     -202.051     260.303     596.411
  H     -202.492     262.028     596.319
  H     -201.554     261.268     595.003
  H     -195.769     259.346     594.064
  H     -195.418     259.524     592.362
  H     -196.607     258.358     592.891

 3  4  5  6  7  8  9  10  11  12  23  26  30  31 0
 6-311+G(2d,p)
 ****
 33  35  36  37  38 0
 6-311+G(2d,p)
 ****
 1  2  13  14  15  16  17  18  19  20  21  22  24  25 0
 3-21G
 ****
 27  28  29  32  34  39  40  41  42  43  44  45  46  47  48  49 0
 3-21G
 ****


