%nproc=1
%NoSave
%Mem=1900MB
#P OB98/GEN NMR

erre ene a

0 1
  C     -297.620      82.414    -869.757
  O     -296.839      81.777    -868.766
  H     -297.981      81.683    -870.480
  H     -298.480      82.888    -869.274
  H     -297.032      83.184    -870.262
  P     -295.538      80.984    -869.271
  C     -293.925      82.831    -868.422
  O     -294.392      82.083    -869.538
  C     -292.398      82.865    -868.420
  O     -291.911      81.499    -868.478
  C     -291.774      83.643    -869.593
  O     -290.936      84.693    -869.098
  C     -290.893      82.621    -870.303
  O     -289.644      83.158    -870.731
  C     -290.706      81.529    -869.253
  N     -287.353      78.858    -872.013
  C     -287.199      79.946    -871.224
  N     -288.108      80.547    -870.432
  C     -289.287      79.892    -870.478
  C     -289.586      78.761    -871.215
  C     -288.561      78.248    -872.024
  N     -288.736      77.169    -872.868
  N     -290.904      78.384    -871.016
  C     -291.395      79.298    -870.206
  N     -290.459      80.244    -869.870
  O     -295.948      80.507    -870.744
  O     -295.122      79.838    -868.413
  H     -289.257      83.612    -869.964
  H     -295.731      79.564    -870.854
  H     -286.211      80.402    -871.237
  H     -292.426      79.357    -869.872
  H     -289.874      81.749    -868.572
  H     -291.428      82.240    -871.180
  H     -292.524      84.053    -870.279
  H     -292.064      83.284    -867.466
  H     -294.273      82.362    -867.493
  H     -287.981      76.943    -873.498
  H     -289.659      76.780    -872.970
  H     -294.336      83.843    -868.477
  P     -291.429      86.201    -869.375
  C     -291.736      87.342    -867.056
  O     -292.349      86.641    -868.134
  O     -292.481      86.019    -870.565
  O     -290.328      87.138    -869.740
  H     -292.537      86.836    -871.094
  H     -292.471      87.565    -866.311
  H     -291.310      88.253    -867.420
  H     -290.967      86.734    -866.627

 6  7  8  9  10  11  12  13  14  15  25  28  32  33  34  35 0
 6-311+G(2d,p)
 ****
 36  39  40 0
 6-311+G(2d,p)
 ****
 1  2  3  4  5  16  17  18  19  20  21  22  23  24 0
 3-21G
 ****
 26  27  29  30  31  37  38  41  42  43  44  45  46  47  48 0
 3-21G
 ****


