%nproc=1
%NoSave
%Mem=1900MB
#P OB98/GEN NMR

erre ene a

0 1
  C     -348.996    -454.271    -891.650
  O     -348.010    -453.725    -892.490
  P     -346.602    -453.222    -891.900
  C     -346.411    -451.221    -893.530
  O     -345.865    -452.478    -893.120
  C     -345.526    -450.584    -894.610
  O     -344.220    -450.300    -894.110
  C     -345.331    -451.455    -895.850
  O     -346.489    -451.443    -896.670
  C     -344.098    -450.803    -896.470
  O     -344.452    -449.650    -897.250
  C     -343.289    -450.390    -895.200
  N     -342.194    -451.299    -894.930
  C     -341.279    -451.510    -895.980
  O     -341.469    -450.957    -897.080
  N     -340.215    -452.361    -895.790
  C     -340.097    -452.972    -894.650
  N     -339.027    -453.813    -894.510
  C     -341.037    -452.809    -893.520
  C     -342.058    -451.970    -893.740
  O     -345.791    -454.258    -891.190
  O     -347.025    -451.991    -890.950
  H     -344.917    -450.006    -898.050
  H     -347.449    -452.322    -890.110
  H     -340.900    -453.334    -892.600
  H     -342.810    -451.773    -892.950
  H     -342.874    -449.366    -895.340
  H     -343.558    -451.508    -897.120
  H     -345.093    -452.480    -895.540
  H     -346.001    -449.625    -894.900
  H     -338.427    -453.925    -895.320
  H     -346.429    -450.569    -892.660
  H     -338.856    -454.369    -893.680
  H     -347.433    -451.375    -893.880
  P     -347.143    -452.828    -897.150
  C     -347.945    -451.311    -899.070
  O     -348.198    -452.491    -898.310
  O     -347.667    -453.692    -896.050
  O     -345.954    -453.555    -897.940
  H     -345.933    -454.487    -897.680
  H     -348.524    -451.365    -900.000
  H     -346.890    -451.206    -899.290
  H     -348.292    -450.432    -898.490
  H     -349.851    -454.542    -892.233
  H     -349.280    -453.547    -890.916
  H     -348.607    -455.140    -891.162

 3  4  5  6  7  8  9  10  11  12  13  23  27  28  29  30  32 0
 6-311+G(2d,p)
 ****
 34  35 0
 6-311+G(2d,p)
 ****
 1  2  14  15  16  17  18  19  20  21  22  24  25  26 0
 3-21G
 ****
 31  33  36  37  38  39  40  41  42  43  44  45  46 0
 3-21G
 ****


