%nproc=1
%NoSave
%Mem=1900MB
#P OB98/GEN NMR

erre ene a

0 1
  C     -107.177     388.722    -140.998
  O     -106.969     387.330    -140.858
  H     -107.688     388.936    -141.940
  H     -107.806     389.071    -140.170
  H     -106.222     389.254    -140.962
  P     -106.059     386.618    -141.970
  C     -104.227     386.130    -140.190
  O     -104.549     386.737    -141.440
  C     -103.638     387.180    -139.253
  O     -104.641     388.171    -138.924
  C     -103.154     386.627    -137.919
  O     -101.867     386.042    -138.015
  C     -103.125     387.895    -137.083
  O     -101.959     388.669    -137.417
  C     -104.397     388.614    -137.560
  N     -106.535     389.175    -132.945
  C     -105.342     389.566    -133.438
  N     -104.848     389.371    -134.677
  C     -105.721     388.698    -135.442
  C     -106.970     388.224    -135.074
  C     -107.382     388.495    -133.754
  N     -108.594     388.082    -133.241
  N     -107.562     387.547    -136.119
  C     -106.700     387.638    -137.110
  N     -105.568     388.315    -136.745
  O     -106.092     387.648    -143.199
  O     -106.478     385.243    -142.366
  H     -102.017     389.498    -136.904
  H     -105.854     387.187    -144.027
  H     -104.699     390.104    -132.745
  H     -106.847     387.233    -138.102
  H     -104.282     389.703    -137.579
  H     -103.088     387.700    -136.010
  H     -103.881     385.926    -137.483
  H     -102.823     387.693    -139.782
  H     -103.491     385.339    -140.356
  H     -108.708     388.161    -132.244
  H     -109.155     387.451    -133.790
  H     -105.136     385.697    -139.760
  P     -101.787     384.446    -138.146
  C     -100.053     384.194    -140.072
  O     -101.425     384.146    -139.678
  O     -103.316     383.995    -138.028
  O     -100.915     383.778    -137.130
  H     -103.386     383.082    -137.685
  H      -99.974     383.973    -141.116
  H      -99.496     383.473    -139.512
  H      -99.662     385.172    -139.884

 6  7  8  9  10  11  12  13  14  15  25  28  32  33  34  35 0
 6-311+G(2d,p)
 ****
 36  39  40 0
 6-311+G(2d,p)
 ****
 1  2  3  4  5  16  17  18  19  20  21  22  23  24 0
 3-21G
 ****
 26  27  29  30  31  37  38  41  42  43  44  45  46  47 0
 3-21G
 ****
 48 0
 3-21G
 ****


