%nproc=1
%NoSave
%Mem=1900MB
#P OB98/GEN NMR

erre ene a

0 1
  C     -156.881     127.607      38.789
  O     -157.376     128.935      38.753
  P     -158.848     129.284      39.286
  C     -157.960     130.947      41.034
  O     -158.643     129.719      40.816
  C     -158.965     132.087      41.179
  O     -159.872     131.761      42.259
  C     -158.378     133.450      41.547
  O     -157.898     134.203      40.442
  C     -159.607     134.138      42.125
  O     -160.456     134.601      41.059
  C     -160.288     132.998      42.888
  N     -161.494     134.718      47.553
  C     -162.072     134.899      46.344
  N     -161.680     134.421      45.145
  C     -160.588     133.653      45.277
  C     -159.889     133.373      46.440
  C     -160.385     133.946      47.623
  N     -159.804     133.745      48.858
  N     -158.805     132.560      46.175
  C     -158.860     132.343      44.877
  N     -159.924     132.973      44.293
  O     -159.861     128.222      39.043
  O     -159.210     130.665      38.567
  H     -160.073     135.437      40.734
  H     -160.172     130.824      38.615
  H     -162.971     135.509      46.339
  H     -158.155     131.743      44.322
  H     -161.381     133.045      42.825
  H     -159.358     135.011      42.735
  H     -157.615     133.358      42.327
  H     -159.551     132.151      40.255
  H     -157.318     131.142      40.168
  H     -160.301     134.085      49.664
  H     -159.082     133.041      48.932
  H     -157.326     130.863      41.920
  P     -156.629     135.156      40.703
  C     -155.194     133.801      38.985
  O     -155.345     134.285      40.301
  O     -156.587     135.774      42.057
  O     -156.737     136.223      39.512
  H     -156.590     135.866      38.623
  H     -154.192     133.377      38.878
  H     -155.310     134.606      38.257
  H     -155.929     133.015      38.787
  H     -155.888     127.586      38.391
  H     -157.514     126.974      38.202
  H     -156.868     127.259      39.801

 3  4  5  6  7  8  9  10  11  12  22  25  29  30  31  32 0
 6-311+G(2d,p)
 ****
 33  36  37 0
 6-311+G(2d,p)
 ****
 1  2  13  14  15  16  17  18  19  20  21  23  24  26 0
 3-21G
 ****
 27  28  34  35  38  39  40  41  42  43  44  45  46  47  48 0
 3-21G
 ****


