%nproc=1
%NoSave
%Mem=1900MB
#P OB98/GEN NMR

erre ene a

0 1
  C      -18.928     -74.844     -29.943
  O      -17.570     -75.188     -29.786
  P      -17.068     -76.633     -29.336
  C      -17.287     -79.044     -30.322
  O      -17.835     -77.736     -30.211
  C      -18.398     -80.102     -30.391
  O      -19.161     -80.050     -29.159
  C      -19.382     -79.814     -31.538
  O      -19.785     -80.970     -32.261
  C      -20.474     -79.003     -30.854
  O      -21.702     -78.990     -31.564
  C      -20.509     -79.638     -29.468
  N      -24.527     -78.089     -26.771
  C      -24.411     -79.179     -27.611
  N      -25.560     -79.826     -27.905
  N      -23.279     -79.569     -28.136
  C      -22.237     -78.757     -27.842
  C      -22.231     -77.652     -27.023
  C      -23.481     -77.252     -26.422
  O      -23.652     -76.226     -25.763
  N      -21.008     -77.034     -27.011
  C      -20.281     -77.744     -27.850
  N      -20.995     -78.781     -28.405
  O      -16.936     -76.867     -27.866
  O      -15.583     -76.674     -29.972
  H      -22.389     -78.655     -30.959
  H      -15.024     -77.192     -29.359
  H      -25.444     -77.790     -26.460
  H      -19.251     -77.537     -28.114
  H      -21.143     -80.527     -29.452
  H      -20.127     -77.964     -30.800
  H      -26.462     -79.462     -27.633
  H      -18.906     -79.193     -32.304
  H      -25.542     -80.460     -28.699
  H      -17.946     -81.096     -30.464
  H      -16.675     -79.198     -29.427
  H      -16.633     -79.113     -31.194
  P      -20.175     -81.102     -33.803
  C      -18.991     -80.872     -36.067
  O      -18.952     -80.564     -34.686
  O      -21.302     -79.994     -34.044
  O      -20.681     -82.448     -34.205
  H      -21.986     -80.349     -34.642
  H      -17.999     -80.699     -36.492
  H      -19.711     -80.219     -36.568
  H      -19.270     -81.918     -36.225
  H      -19.004     -73.822     -30.250
  H      -19.439     -74.976     -29.012
  H      -19.372     -75.473     -30.686

 3  4  5  6  7  8  9  10  11  12  23  26  30  31 0
 6-311+G(2d,p)
 ****
 33  35  36  37  38 0
 6-311+G(2d,p)
 ****
 1  2  13  14  15  16  17  18  19  20  21  22  24  25 0
 3-21G
 ****
 27  28  29  32  34  39  40  41  42  43  44  45  46  47  48  49 0
 3-21G
 ****


