%nproc=1
%NoSave
%Mem=1900MB
#P OB98/GEN NMR

erre ene a

0 1
  C     -323.188    -220.364    -528.422
  O     -323.780    -221.189    -527.439
  H     -322.982    -219.373    -528.008
  H     -322.247    -220.817    -528.744
  H     -323.853    -220.278    -529.292
  P     -325.129    -220.641    -526.763
  C     -323.844    -219.234    -524.998
  O     -324.758    -219.232    -526.091
  C     -323.744    -217.840    -524.393
  O     -323.355    -216.883    -525.397
  C     -325.046    -217.308    -523.805
  O     -325.326    -217.848    -522.523
  C     -324.729    -215.817    -523.719
  O     -323.941    -215.555    -522.542
  C     -323.879    -215.584    -524.986
  N     -325.523    -211.242    -527.174
  C     -324.788    -211.468    -526.049
  N     -324.403    -212.652    -525.528
  C     -324.829    -213.672    -526.290
  C     -325.581    -213.595    -527.453
  C     -325.939    -212.306    -527.890
  N     -326.699    -212.088    -529.020
  N     -325.814    -214.855    -527.964
  C     -325.219    -215.682    -527.128
  N     -324.618    -215.012    -526.090
  O     -325.336    -221.607    -525.501
  O     -326.334    -220.634    -527.651
  H     -324.001    -214.592    -522.381
  H     -326.291    -221.758    -525.369
  H     -324.480    -210.579    -525.507
  H     -325.203    -216.759    -527.232
  H     -323.015    -214.947    -524.774
  H     -325.620    -215.188    -523.662
  H     -325.884    -217.459    -524.494
  H     -322.958    -217.859    -523.618
  H     -322.854    -219.540    -525.359
  H     -326.743    -211.156    -529.391
  H     -326.991    -212.893    -529.558
  H     -324.193    -219.954    -524.249
  P     -326.870    -218.071    -522.127
  C     -326.891    -215.755    -520.932
  O     -327.473    -216.589    -521.932
  O     -326.784    -218.632    -520.631
  O     -327.624    -218.996    -523.025
  H     -327.579    -219.154    -520.427
  H     -327.392    -214.810    -520.920
  H     -325.854    -215.606    -521.151
  H     -326.990    -216.223    -519.975

 6  7  8  9  10  11  12  13  14  15  25  28  32  33  34  35 0
 6-311+G(2d,p)
 ****
 36  39  40 0
 6-311+G(2d,p)
 ****
 1  2  3  4  5  16  17  18  19  20  21  22  23  24 0
 3-21G
 ****
 26  27  29  30  31  37  38  41  42  43  44  45  46  47  48 0
 3-21G
 ****


