%nproc=1
%NoSave
%Mem=1900MB
#P OB98/GEN NMR

erre ene a

0 1
  C     -429.609     270.739     100.515
  O     -429.717     270.749     101.925
  H     -428.698     271.269     100.229
  H     -430.468     271.246     100.068
  H     -429.551     269.711     100.149
  P     -430.987     269.999     102.555
  C     -430.127     267.659     103.290
  O     -430.416     268.999     103.670
  C     -428.986     267.118     104.146
  O     -427.783     267.882     103.897
  C     -429.233     267.228     105.643
  O     -430.095     266.213     106.127
  C     -427.814     267.128     106.183
  O     -427.392     265.762     106.294
  C     -426.996     267.852     105.110
  N     -423.480     270.689     107.487
  C     -423.515     269.377     107.164
  N     -424.487     268.699     106.518
  C     -425.487     269.524     106.170
  C     -425.590     270.880     106.425
  C     -424.520     271.472     107.117
  N     -424.496     272.801     107.467
  N     -426.787     271.376     105.948
  C     -427.393     270.341     105.403
  N     -426.644     269.200     105.511
  O     -431.454     269.028     101.372
  O     -432.091     270.895     103.007
  H     -426.468     265.788     106.610
  H     -432.213     269.425     100.903
  H     -422.653     268.794     107.477
  H     -428.367     270.360     104.933
  H     -426.060     267.329     104.877
  H     -427.742     267.580     107.173
  H     -429.632     268.221     105.886
  H     -428.794     266.076     103.858
  H     -429.830     267.635     102.235
  H     -431.028     267.051     103.418
  H     -423.728     273.143     108.022
  H     -425.317     273.367     107.297
  P     -431.065     266.580     107.349
  C     -432.946     267.442     105.763
  O     -432.567     266.540     106.793
  O     -430.794     268.137     107.600
  O     -430.841     265.770     108.582
  H     -430.852     268.334     108.554
  H     -433.974     267.284     105.510
  H     -432.337     267.274     104.900
  H     -432.813     268.448     106.103

 6  7  8  9  10  11  12  13  14  15  25  28  32  33  34  35 0
 6-311+G(2d,p)
 ****
 36  37  40 0
 6-311+G(2d,p)
 ****
 1  2  3  4  5  16  17  18  19  20  21  22  23  24 0
 3-21G
 ****
 26  27  29  30  31  38  39 41  42  43  44  45  46  47  48 0
 3-21G
 ****


