%nproc=1
%NoSave
%Mem=1900MB
#P OB98/GEN NMR

erre ene a

0 1
  C      -90.130      75.606     -28.285
  O      -89.704      76.755     -27.581
  H      -90.906      75.899     -28.997
  H      -90.550      74.879     -27.587
  H      -89.297      75.158     -28.834
  P      -88.423      76.582     -26.630
  C      -87.016      76.629     -28.809
  O      -87.243      76.008     -27.553
  C      -85.804      76.003     -29.494
  O      -84.584      76.443     -28.857
  C      -85.780      74.479     -29.455
  O      -86.581      73.911     -30.482
  C      -84.303      74.218     -29.702
  O      -84.006      74.391     -31.102
  C      -83.645      75.331     -28.878
  N      -80.847      72.277     -25.956
  C      -80.914      72.372     -27.333
  N      -80.130      71.524     -28.032
  N      -81.683      73.216     -27.969
  C      -82.421      73.994     -27.141
  C      -82.440      73.995     -25.764
  C      -81.580      73.063     -25.074
  O      -81.465      72.953     -23.857
  N      -83.309      74.935     -25.277
  C      -83.829      75.488     -26.354
  N      -83.328      74.947     -27.512
  O      -88.812      75.329     -25.708
  O      -88.074      77.774     -25.804
  H      -84.654      73.856     -31.595
  H      -88.449      75.472     -24.813
  H      -80.247      71.601     -25.517
  H      -84.565      76.279     -26.350
  H      -82.716      75.693     -29.332
  H      -84.005      73.203     -29.435
  H      -79.552      70.817     -27.606
  H      -86.057      74.097     -28.466
  H      -80.136      71.597     -29.041
  H      -85.780      76.363     -30.531
  H      -86.832      77.697     -28.655
  H      -87.906      76.506     -29.433
  P      -87.058      72.388     -30.297
  C      -88.922      72.990     -28.593
  O      -87.693      72.311     -28.826
  O      -85.676      71.595     -30.144
  O      -87.896      71.850     -31.405
  H      -85.801      70.657     -30.387
  H      -89.220      72.850     -27.575
  H      -89.676      72.596     -29.242
  H      -88.795      74.035     -28.787

 6  7  8  9  10  11  12  13  14  15  26  29  33  34 0
 6-311+G(2d,p)
 ****
 36  38  39  40  41 0
 6-311+G(2d,p)
 ****
 1  2  3  4  5  16  17  18  19  20  21  22  23  24  25 0
 3-21G
 ****
 27  28  30  31  32  35  37  42  43  44  45  46  47 0
 3-21G
 ****
 48  49 0
 3-21G
 ****


