%nproc=1
%NoSave
%Mem=1900MB
#P OB98/GEN NMR

erre ene a

0 1
  C       39.108     -53.484     373.537
  O       39.103     -54.108     374.804
  H       38.239     -52.824     373.446
  H       40.018     -52.883     373.441
  H       39.091     -54.233     372.737
  P       37.937     -55.175     375.084
  C       38.714     -57.234     373.697
  O       38.633     -56.622     374.974
  C       39.499     -58.547     373.782
  O       40.902     -58.236     374.010
  C       39.036     -59.466     374.919
  O       39.089     -60.821     374.467
  C       40.074     -59.241     376.002
  O       40.181     -60.351     376.886
  C       41.331     -58.977     375.172
  N       45.295     -59.362     378.370
  C       44.572     -60.292     377.712
  N       43.531     -60.108     376.870
  C       43.292     -58.791     376.697
  C       43.945     -57.725     377.299
  C       44.992     -58.050     378.181
  N       45.709     -57.108     378.881
  N       43.387     -56.525     376.894
  C       42.418     -56.865     376.064
  N       42.320     -58.222     375.921
  O       37.062     -55.080     373.742
  O       37.118     -54.938     376.306
  H       39.299     -60.519     377.280
  H       36.481     -54.294     373.790
  H       44.857     -61.324     377.893
  H       41.760     -56.172     375.557
  H       41.814     -59.905     374.834
  H       39.807     -58.354     376.595
  H       38.026     -59.239     375.260
  H       39.446     -59.052     372.808
  H       39.215     -56.550     373.002
  H       46.406     -57.437     379.539
  H       45.459     -56.136     378.804
  H       37.700     -57.435     373.327
  P       37.698     -61.500     374.040
  C       38.202     -61.298     371.501
  O       37.871     -62.158     372.584
  O       36.739     -60.240     373.776
  O       37.128     -62.409     375.082
  H       35.897     -60.361     374.251
  H       38.284     -61.872     370.602
  H       39.135     -60.815     371.702
  H       37.436     -60.560     371.385

 6  7  8  9  10  11  12  13  14  15  25  28  32  33  34  35 0
 6-311+G(2d,p)
 ****
 36  39  40 0
 6-311+G(2d,p)
 ****
 1  2  3  4  5  16  17  18  19  20  21  22  23  24 0
 3-21G
 ****
 26  27  29  30  31  37  38  41  42  43  44  45  46  47 0
 3-21G
 ****
 48 0
 3-21G
 ****


