%nproc=1
%NoSave
%Mem=1900MB
#P OB98/GEN NMR

erre ene a

0 1
  C      230.779     115.841     323.793
  O      230.700     115.506     325.166
  P      229.301     114.948     325.718
  C      230.076     112.833     327.034
  O      229.451     113.360     325.870
  C      231.250     111.942     326.627
  O      232.227     112.703     325.883
  C      232.007     111.354     327.811
  O      231.321     110.242     328.364
  C      233.341     110.988     327.176
  O      233.266     109.714     326.518
  C      233.523     112.124     326.144
  N      234.488     113.126     326.583
  C      235.802     112.683     326.731
  O      236.138     111.515     326.532
  N      236.704     113.620     327.155
  C      236.423     114.912     327.491
  O      237.267     115.690     327.919
  C      235.014     115.316     327.344
  C      234.126     114.417     326.911
  O      228.304     115.121     324.478
  O      228.794     115.641     326.938
  H      232.960     109.071     327.191
  H      227.412     115.354     324.800
  H      237.665     113.326     327.244
  H      234.755     116.334     327.602
  H      233.082     114.692     326.808
  H      233.866     111.711     325.189
  H      234.147     110.922     327.915
  H      232.174     112.130     328.570
  H      230.872     111.142     325.976
  H      229.349     112.249     327.602
  H      230.420     113.662     327.660
  P      230.175     110.557     329.445
  C      228.193     109.409     328.190
  O      228.812     110.607     328.604
  O      230.507     112.086     329.795
  O      230.203     109.629     330.611
  H      230.870     112.565     329.030
  H      228.313     108.616     328.934
  H      228.629     109.085     327.240
  H      227.126     109.596     328.040
  H      231.763     116.196     323.569
  H      230.064     116.606     323.571
  H      230.569     114.974     323.202

 3  4  5  6  7  8  9  10  11  12  13  23  28  29  30  31  32 0
 6-311+G(2d,p)
 ****
 33  34 0
 6-311+G(2d,p)
 ****
 1  2  14  15  16  17  18  19  20  21  22  24  25  26 0
 3-21G
 ****
 27  35  36  37  38  39  40  41  42  43  44  45 0
 3-21G
 ****


