%nproc=1
%NoSave
%Mem=1900MB
#P OB98/GEN NMR

erre ene a

0 1
  C     -357.093     153.698    -226.486
  O     -356.649     154.867    -227.137
  H     -356.241     153.223    -225.990
  H     -357.502     152.993    -227.217
  H     -357.850     153.934    -225.734
  P     -357.763     155.811    -227.802
  C     -355.884     157.557    -227.380
  O     -357.044     157.213    -228.129
  C     -355.566     159.045    -227.545
  O     -354.862     159.236    -228.805
  C     -356.811     159.938    -227.555
  O     -356.504     161.155    -226.861
  C     -357.023     160.243    -229.029
  O     -357.730     161.466    -229.245
  C     -355.578     160.240    -229.554
  N     -355.533     159.972    -230.994
  C     -354.436     160.464    -231.696
  O     -353.555     161.101    -231.096
  N     -354.364     160.282    -233.048
  C     -355.363     159.729    -233.674
  N     -355.255     159.601    -235.020
  C     -356.579     159.250    -232.986
  C     -356.595     159.396    -231.654
  O     -358.727     156.172    -226.573
  O     -358.505     155.215    -228.948
  H     -358.655     161.344    -228.947
  H     -359.647     156.296    -226.871
  H     -357.396     158.820    -233.545
  H     -357.449     159.085    -231.067
  H     -355.091     161.207    -229.367
  H     -357.595     159.436    -229.493
  H     -357.686     159.469    -227.106
  H     -354.875     159.344    -226.749
  H     -354.412     159.956    -235.458
  H     -355.033     156.970    -227.750
  H     -355.982     159.231    -235.613
  H     -356.046     157.315    -226.327
  P     -357.533     161.597    -225.706
  C     -355.902     162.798    -224.079
  O     -356.966     162.923    -225.014
  O     -357.340     160.466    -224.587
  O     -358.949     161.680    -226.173
  H     -358.123     159.881    -224.562
  H     -355.638     163.766    -223.708
  H     -355.054     162.357    -224.560
  H     -356.213     162.177    -223.265

 6  7  8  9  10  11  12  13  14  15  16  26  30  31  32  33  35 0
 6-311+G(2d,p)
 ****
 37  38 0
 6-311+G(2d,p)
 ****
 1  2  3  4  5  17  18  19  20  21  22  23  24  25 0
 3-21G
 ****
 27  28  29  34  36  39  40  41  42  43  44  45  46 0
 3-21G
 ****


