%nproc=1
%NoSave
%Mem=1900MB
#P OB98/GEN NMR

erre ene a

0 1
  C       68.618     -41.674    -326.005
  O       68.748     -42.975    -325.426
  P       69.288     -44.153    -326.372
  C       71.128     -45.406    -325.021
  O       70.824     -44.431    -326.011
  C       71.518     -44.723    -323.708
  O       70.386     -44.071    -323.103
  C       72.028     -45.692    -322.657
  O       73.365     -46.062    -322.927
  C       71.859     -44.887    -321.373
  O       73.030     -44.112    -321.073
  C       70.659     -43.966    -321.696
  N       69.483     -44.280    -320.903
  C       69.502     -43.836    -319.577
  O       70.487     -43.238    -319.137
  N       68.419     -44.103    -318.779
  C       67.417     -44.774    -319.257
  N       66.375     -45.014    -318.417
  C       67.370     -45.285    -320.641
  C       68.426     -45.005    -321.402
  O       69.367     -43.460    -327.812
  O       68.413     -45.364    -326.390
  H       73.269     -43.661    -321.909
  H       69.177     -44.112    -328.510
  H       66.518     -45.848    -320.992
  H       68.478     -45.340    -322.434
  H       70.923     -42.918    -321.506
  H       71.684     -45.540    -320.513
  H       71.386     -46.581    -322.624
  H       72.286     -43.967    -323.925
  H       66.442     -44.651    -317.474
  H       71.942     -46.048    -325.362
  H       65.550     -45.531    -318.681
  H       70.254     -46.053    -324.883
  P       73.616     -47.408    -323.754
  C       75.573     -46.862    -325.324
  O       74.167     -46.924    -325.181
  O       72.119     -47.861    -324.117
  O       74.379     -48.497    -323.079
  H       72.129     -48.734    -324.547
  H       75.812     -46.728    -326.381
  H       76.036     -47.788    -324.974
  H       75.966     -46.010    -324.763
  H       68.251     -40.991    -325.268
  H       67.933     -41.716    -326.826
  H       69.573     -41.342    -326.355

 3  4  5  6  7  8  9  10  11  12  13  21  23  27  28  29  30  32 0
 6-311+G(2d,p)
 ****
 34  35 0
 6-311+G(2d,p)
 ****
 1  2  14  15  16  17  18  19  20  22  24  25  26 0
 3-21G
 ****
 31  33  36  37  38  39  40  41  42  43  44  45  46 0
 3-21G
 ****


