%nproc=1
%NoSave
%Mem=1900MB
#P OB98/GEN NMR

erre ene a

0 1
  C      212.916     -36.468    -898.920
  O      214.277     -36.678    -898.580
  H      212.350     -37.360    -898.630
  H      212.823     -36.308    -900.000
  H      212.502     -35.611    -898.390
  P      215.271     -35.425    -898.590
  C      215.877     -35.226    -896.090
  O      215.120     -34.700    -897.170
  C      215.001     -36.063    -895.150
  O      214.542     -37.248    -895.880
  C      215.783     -36.558    -893.930
  O      214.935     -36.770    -892.780
  C      216.326     -37.908    -894.400
  O      216.643     -38.793    -893.330
  C      215.170     -38.399    -895.280
  N      214.039     -42.470    -898.130
  C      213.370     -41.983    -897.010
  N      212.288     -42.653    -896.600
  N      213.789     -40.933    -896.330
  C      214.932     -40.398    -896.820
  C      215.691     -40.808    -897.910
  C      215.206     -41.937    -898.660
  O      215.762     -42.453    -899.630
  N      216.801     -40.021    -898.070
  C      216.735     -39.146    -897.100
  N      215.602     -39.307    -896.320
  O      214.573     -34.389    -899.580
  O      216.680     -35.718    -899.000
  H      217.296     -38.342    -892.760
  H      215.225     -33.753    -899.930
  H      213.673     -43.271    -898.610
  H      217.464     -38.353    -896.920
  H      214.416     -38.923    -894.670
  H      217.245     -37.728    -894.960
  H      212.076     -43.583    -896.970
  H      216.610     -35.888    -893.650
  H      212.000     -42.510    -895.640
  H      214.105     -35.493    -894.870
  H      216.295     -34.365    -895.550
  H      216.725     -35.809    -896.470
  P      214.460     -35.496    -891.950
  C      211.865     -36.055    -891.800
  O      212.911     -35.203    -892.260
  O      215.212     -34.267    -892.650
  O      214.755     -35.560    -890.490
  H      215.840     -33.844    -892.040
  H      210.921     -35.667    -892.122
  H      211.886     -36.100    -890.731
  H      212.003     -37.037    -892.201

 6  7  8  9  10  11  12  13  14  15  26  29  33  34 0
 6-311+G(2d,p)
 ****
 36  38  39  40  41 0
 6-311+G(2d,p)
 ****
 1  2  3  4  5  16  17  18  19  20  21  22  23  24  25 0
 3-21G
 ****
 27  28  30  31  32  35  37  42  43  44  45  46  47 0
 3-21G
 ****
 48  49 0
 3-21G
 ****


