%nproc=1
%NoSave
%Mem=1900MB
#P OB98/GEN NMR

erre ene a

0 1
  C      212.694    -385.787      20.152
  O      212.444    -384.518      20.752
  P      212.990    -383.217      19.989
  C      213.441    -381.915      22.203
  O      212.785    -381.941      20.938
  C      212.944    -380.721      23.027
  O      213.259    -379.473      22.382
  C      211.435    -380.707      23.218
  O      211.043    -381.634      24.214
  C      211.179    -379.251      23.591
  O      211.244    -379.041      25.006
  C      212.319    -378.498      22.865
  N      211.835    -377.651      21.788
  C      212.251    -376.310      21.832
  O      212.952    -375.908      22.754
  N      211.826    -375.460      20.835
  C      211.046    -375.902      19.901
  N      210.657    -375.014      18.942
  C      210.565    -377.304      19.833
  C      210.991    -378.105      20.799
  O      211.909    -382.992      18.828
  O      214.372    -383.377      19.432
  H      210.598    -379.669      25.401
  H      212.337    -382.616      18.032
  H      209.910    -377.621      19.037
  H      210.694    -379.148      20.830
  H      212.864    -377.862      23.578
  H      210.180    -378.932      23.274
  H      210.935    -380.939      22.263
  H      213.445    -380.746      24.006
  H      211.002    -374.068      19.021
  H      214.520    -381.853      22.068
  H      210.043    -375.252      18.173
  H      213.238    -382.858      22.722
  P      210.710    -383.126      23.758
  C      208.972    -383.195      25.653
  O      210.099    -383.835      25.066
  O      212.167    -383.794      23.678
  O      209.943    -383.300      22.488
  H      212.106    -384.696      23.310
  H      208.544    -383.884      26.396
  H      208.220    -382.975      24.898
  H      209.290    -382.283      26.169
  H      212.277    -386.559      20.764
  H      213.750    -385.936      20.059
  H      212.243    -385.818      19.182

 3  4  5  6  7  8  9  10  11  12  13  21  23  27  28  29  30  32 0
 6-311+G(2d,p)
 ****
 34  35 0
 6-311+G(2d,p)
 ****
 1  2  14  15  16  17  18  19  20  22  24  25  26 0
 3-21G
 ****
 31  33  36  37  38  39  40  41  42  43  44  45  46 0
 3-21G
 ****


