%nproc=1
%NoSave
%Mem=1900MB
#P OB98/GEN NMR

erre ene a

0 1
  C       24.101     -18.673     -12.009
  O       23.226     -17.821     -12.720
  H       23.997     -19.702     -12.363
  H       25.130     -18.346     -12.180
  H       23.888     -18.625     -10.937
  P       21.660     -18.155     -12.630
  C       21.620     -19.269     -14.981
  O       21.447     -19.432     -13.580
  C       21.562     -20.635     -15.657
  O       22.553     -21.516     -15.082
  C       20.226     -21.347     -15.490
  O       19.253     -20.906     -16.421
  C       20.636     -22.785     -15.760
  O       20.804     -22.985     -17.175
  C       21.994     -22.858     -15.046
  N       22.828     -26.734     -11.807
  C       23.084     -26.589     -13.125
  N       22.852     -25.517     -13.909
  C       22.304     -24.518     -13.201
  C       21.992     -24.517     -11.851
  C       22.272     -25.696     -11.140
  N       21.983     -25.859      -9.803
  N       21.421     -23.313     -11.486
  C       21.408     -22.598     -12.592
  N       21.901     -23.294     -13.662
  O       20.969     -16.972     -13.458
  O       21.103     -18.309     -11.254
  H       19.954     -22.761     -17.598
  H       20.009     -16.950     -13.282
  H       23.532     -27.449     -13.614
  H       21.044     -21.582     -12.672
  H       22.701     -23.527     -15.550
  H       19.891     -23.508     -15.419
  H       19.855     -21.270     -14.462
  H       21.810     -20.504     -16.718
  H       22.594     -18.806     -15.169
  H       22.083     -26.786      -9.421
  H       21.437     -25.151      -9.335
  H       20.831     -18.621     -15.372
  P       17.798     -20.531     -15.852
  C       17.230     -23.066     -15.881
  O       17.237     -21.853     -15.136
  O       16.912     -20.424     -17.178
  O       17.754     -19.280     -15.037
  H       16.206     -19.758     -17.073
  H       16.831     -23.854     -15.276
  H       18.230     -23.311     -16.172
  H       16.624     -22.945     -16.754

 6  7  8  9  10  11  12  13  14  15  25  28  32  33  34  35 0
 6-311+G(2d,p)
 ****
 36  39  40 0
 6-311+G(2d,p)
 ****
 1  2  3  4  5  16  17  18  19  20  21  22  23  24 0
 3-21G
 ****
 26  27  29  30  31  37  38  41  42  43  44  45  46  47 0
 3-21G
 ****
 48 0
 3-21G
 ****


