%nproc=1
%NoSave
%Mem=1900MB
#P OB98/GEN NMR

erre ene a

0 1
  C        3.692     -83.840     104.412
  O        4.323     -83.411     103.201
  P        3.893     -84.172     101.857
  C        1.583     -83.033     101.519
  O        2.907     -83.213     101.034
  C        0.692     -82.460     100.416
  O       -0.708     -82.678     100.694
  C        0.836     -80.953     100.245
  O        2.046     -80.629      99.582
  C       -0.427     -80.633      99.454
  O       -0.247     -80.957      98.065
  C       -1.450     -81.596     100.081
  N       -6.265     -80.409     101.339
  C       -5.741     -81.043     100.267
  N       -4.447     -81.318     100.004
  C       -3.657     -80.877     100.996
  C       -4.046     -80.219     102.152
  C       -5.421     -79.981     102.307
  N       -5.953     -79.323     103.393
  N       -2.949     -79.920     102.935
  C       -1.915     -80.369     102.252
  N       -2.293     -80.966     101.079
  O        2.936     -85.341     102.384
  O        5.048     -84.712     101.079
  H        0.472     -80.388      97.724
  H        3.385     -86.202     102.302
  H       -6.458     -81.371      99.518
  H       -0.881     -80.285     102.564
  H       -2.115     -82.039      99.332
  H       -0.713     -79.579      99.511
  H        0.803     -80.456     101.223
  H        0.946     -82.967      99.476
  H        1.584     -82.360     102.381
  H       -6.941     -79.123     103.390
  H       -5.327     -78.922     104.077
  H        1.204     -83.997     101.873
  P        2.986     -79.513     100.246
  C        4.486     -80.755     101.922
  O        4.341     -80.311     100.585
  O        2.314     -79.338     101.684
  O        3.152     -78.269      99.443
  H        2.107     -80.197     102.093
  H        5.425     -81.308     102.005
  H        3.658     -81.417     102.192
  H        4.518     -79.899     102.600
  H        4.061     -83.259     105.231
  H        3.910     -84.874     104.581
  H        2.633     -83.708     104.329

 3  4  5  6  7  8  9  10  11  12  22  25  29  30  31  32 0
 6-311+G(2d,p)
 ****
 33  36  37 0
 6-311+G(2d,p)
 ****
 1  2  13  14  15  16  17  18  19  20  21  23  24  26 0
 3-21G
 ****
 27  28  34  35  38  39  40  41  42  43  44  45  46  47  48 0
 3-21G
 ****


