%nproc=1
%NoSave
%Mem=1900MB
#P OB98/GEN NMR

erre ene a

0 1
  C      707.747    -891.370    -254.415
  O      708.323    -892.380    -253.617
  H      708.167    -890.390    -254.116
  H      706.665    -891.340    -254.299
  H      708.005    -891.540    -255.472
  P      707.784    -893.880    -253.791
  C      709.868    -894.890    -254.931
  O      708.548    -894.420    -255.095
  C      710.041    -896.250    -255.635
  O      709.035    -897.180    -255.207
  C      709.904    -896.190    -257.158
  O      711.033    -895.620    -257.807
  C      709.753    -897.670    -257.455
  O      711.035    -898.320    -257.366
  C      708.812    -898.110    -256.299
  N      707.417    -898.140    -256.690
  C      707.028    -899.180    -257.552
  O      707.831    -900.000    -257.956
  N      705.715    -899.230    -257.976
  C      704.873    -898.320    -257.579
  N      703.599    -898.400    -258.054
  C      705.225    -897.230    -256.646
  C      706.503    -897.210    -256.258
  O      706.307    -894.050    -253.786
  O      708.519    -894.700    -252.626
  H      711.352    -898.210    -256.457
  H      708.225    -895.640    -252.688
  H      704.505    -896.510    -256.374
  H      706.846    -896.420    -255.593
  H      709.103    -899.110    -255.950
  H      709.361    -897.860    -258.460
  H      708.986    -895.680    -257.456
  H      711.026    -896.660    -255.339
  H      703.407    -899.140    -258.714
  H      710.081    -894.970    -253.861
  H      702.980    -897.600    -258.015
  H      710.583    -894.180    -255.371
  P      710.771    -894.660    -259.077
  C      710.314    -892.520    -257.666
  O      709.810    -893.470    -258.584
  O      709.810    -895.560    -259.989
  O      712.005    -894.180    -259.804
  H      710.333    -896.050    -260.660
  H      709.553    -891.801    -257.443
  H      711.159    -892.023    -258.095
  H      710.611    -893.016    -256.766

 6  7  8  9  10  11  12  13  14  15  16  26  30  31  32  33  35 0
 6-311+G(2d,p)
 ****
 37  38 0
 6-311+G(2d,p)
 ****
 1  2  3  4  5  17  18  19  20  21  22  23  24  25 0
 3-21G
 ****
 27  28  29  34  36  39  40  41  42  43  44  45  46 0
 3-21G
 ****


