%nproc=1
%NoSave
%Mem=1900MB
#P OB98/GEN NMR

erre ene a

0 1
  C       73.301    -252.705     933.176
  O       74.130    -252.053     934.114
  H       72.593    -253.355     933.688
  H       72.746    -251.951     932.612
  H       73.906    -253.289     932.477
  P       75.013    -252.990     935.073
  C       77.260    -252.163     934.076
  O       76.399    -253.270     934.311
  C       78.190    -252.461     932.898
  O       77.373    -252.881     931.769
  C       79.054    -251.275     932.448
  O       80.444    -251.626     932.514
  C       78.684    -251.067     930.985
  O       79.807    -250.766     930.154
  C       78.027    -252.385     930.593
  N       77.580    -251.232     925.646
  C       78.625    -251.708     926.361
  N       78.648    -252.102     927.655
  C       77.429    -251.979     928.210
  C       76.268    -251.528     927.601
  C       76.378    -251.121     926.262
  N       75.333    -250.578     925.550
  N       75.213    -251.533     928.499
  C       75.737    -251.936     929.639
  N       77.078    -252.202     929.517
  O       74.254    -254.400     935.004
  O       75.154    -252.506     936.478
  H       79.455    -250.621     929.253
  H       74.134    -254.752     935.907
  H       79.564    -251.791     925.824
  H       75.212    -252.014     930.578
  H       78.768    -253.136     930.276
  H       77.972    -250.237     930.922
  H       78.872    -250.370     933.036
  H       78.821    -253.314     933.169
  H       77.868    -251.971     934.965
  H       75.527    -250.208     924.631
  H       74.461    -250.395     926.035
  H       76.650    -251.274     933.872
  P       81.272    -251.051     933.769
  C       81.749    -253.427     934.731
  O       81.176    -252.137     934.944
  O       80.337    -249.855     934.299
  O       82.646    -250.580     933.429
  H       80.885    -249.184     934.751
  H       81.602    -254.031     935.602
  H       82.797    -253.325     934.540
  H       81.277    -253.893     933.891

 6  7  8  9  10  11  12  13  14  15  25  28  32  33  34  35 0
 6-311+G(2d,p)
 ****
 36  39  40 0
 6-311+G(2d,p)
 ****
 1  2  3  4  5  16  17  18  19  20  21  22  23  24 0
 3-21G
 ****
 26  27  29  30  31  37  38  41  42  43  44  45  46  47  48 0
 3-21G
 ****


