%nproc=1
%NoSave
%Mem=1900MB
#P OB98/GEN NMR

erre ene a

0 1
  C     -238.350     442.591     340.941
  O     -238.009     443.574     339.979
  P     -237.948     443.110     338.441
  C     -237.055     440.882     337.437
  O     -236.846     441.950     338.349
  C     -236.019     439.783     337.668
  O     -236.229     439.166     338.953
  C     -236.067     438.644     336.657
  O     -235.492     439.027     335.422
  C     -235.292     437.569     337.414
  O     -233.881     437.817     337.313
  C     -235.767     437.795     338.861
  N     -236.945     433.033     340.335
  C     -235.774     433.608     339.990
  N     -235.540     434.872     339.584
  C     -236.683     435.580     339.566
  C     -237.956     435.127     339.873
  C     -238.070     433.789     340.274
  N     -239.272     433.207     340.625
  N     -238.885     436.133     339.712
  C     -238.185     437.179     339.328
  N     -236.845     436.900     339.236
  O     -237.244     444.347     337.716
  O     -239.277     442.778     337.834
  H     -233.698     438.647     337.790
  H     -237.597     444.466     336.811
  H     -234.898     432.959     340.046
  H     -238.595     438.155     339.110
  H     -234.961     437.664     339.592
  H     -235.481     436.560     337.034
  H     -237.101     438.317     336.498
  H     -235.023     440.250     337.666
  H     -236.952     441.252     336.408
  H     -239.286     432.208     340.761
  H     -240.120     433.729     340.441
  H     -238.071     440.496     337.565
  P     -235.709     438.048     334.172
  C     -234.538     435.895     333.395
  O     -234.531     436.968     334.325
  O     -235.198     438.951     332.955
  O     -237.086     437.494     334.038
  H     -234.336     439.362     333.143
  H     -233.658     435.270     333.578
  H     -234.496     436.282     332.375
  H     -235.439     435.292     333.529
  H     -238.354     443.032     341.916
  H     -237.632     441.798     340.911
  H     -239.322     442.200     340.723

 3  4  5  6  7  8  9  10  11  12  22  25  29  30  31  32 0
 6-311+G(2d,p)
 ****
 33  36  37 0
 6-311+G(2d,p)
 ****
 1  2  13  14  15  16  17  18  19  20  21  23  24  26 0
 3-21G
 ****
 27  28  34  35  38  39  40  41  42  43  44  45  46  47  48 0
 3-21G
 ****


