%nproc=1
%NoSave
%Mem=1900MB
#P OB98/GEN NMR

erre ene a

0 1
  C     -359.113     243.605     859.137
  O     -358.803     242.932     860.354
  P     -359.930     242.885     861.492
  C     -358.039     241.508     862.674
  O     -359.206     242.302     862.802
  C     -357.568     241.009     864.048
  O     -356.992     242.108     864.800
  C     -358.700     240.481     864.920
  O     -359.118     239.194     864.488
  C     -358.035     240.510     866.282
  O     -357.177     239.371     866.468
  C     -357.186     241.790     866.197
  N     -357.768     242.930     866.916
  C     -356.853     243.764     867.574
  O     -355.643     243.555     867.570
  N     -357.387     244.827     868.242
  C     -358.719     245.126     868.343
  O     -359.138     246.102     868.936
  C     -359.634     244.185     867.673
  C     -359.125     243.145     866.997
  O     -360.836     241.675     860.970
  O     -360.642     244.182     861.665
  H     -360.316     240.964     860.530
  H     -357.714     238.587     866.263
  H     -356.741     245.453     868.701
  H     -360.698     244.368     867.754
  H     -359.788     242.423     866.510
  H     -356.186     241.606     866.606
  H     -358.769     240.510     867.107
  H     -359.555     241.158     864.909
  H     -356.810     240.247     863.898
  H     -357.229     242.084     862.211
  H     -358.251     240.665     862.000
  P     -360.453     239.137     863.578
  C     -359.751     236.713     862.829
  O     -360.756     237.565     863.345
  O     -359.884     239.633     862.173
  O     -361.582     239.927     864.127
  H     -359.035     239.237     861.930
  H     -360.023     235.683     863.060
  H     -358.787     236.932     863.290
  H     -359.678     236.828     861.746
  H     -358.272     243.555     858.478
  H     -359.343     244.629     859.344
  H     -359.957     243.136     858.675

 3  4  5  6  7  8  9  10  11  12  13  24  28  29  30  31  32 0
 6-311+G(2d,p)
 ****
 33  34 0
 6-311+G(2d,p)
 ****
 1  2  14  15  16  17  18  19  20  21  22  23  25  26  27 0
 3-21G
 ****
 35  36  37  38  39  40  41  42  43  44  45 0
 3-21G
 ****


