%nproc=1
%NoSave
%Mem=1900MB
#P OB98/GEN NMR

erre ene a

0 1
  C     -106.318      86.120     739.296
  O     -106.931      85.775     738.058
  P     -108.520      85.847     737.880
  C     -110.521      84.689     739.006
  O     -109.103      84.741     738.884
  C     -110.969      83.261     739.308
  O     -110.310      82.819     740.532
  C     -112.464      83.058     739.565
  O     -113.249      82.915     738.387
  C     -112.445      81.750     740.336
  O     -112.290      80.651     739.424
  C     -111.202      81.900     741.210
  N     -111.392      80.733     746.189
  C     -111.013      80.011     745.100
  N     -111.010      80.387     743.815
  C     -111.412      81.663     743.689
  C     -111.818      82.518     744.692
  C     -111.805      82.013     745.997
  N     -112.165      82.753     747.110
  N     -112.176      83.757     744.181
  C     -111.979      83.644     742.883
  N     -111.503      82.405     742.538
  O     -108.989      85.739     736.463
  O     -108.944      87.227     738.572
  H     -111.475      80.803     738.910
  H     -109.836      87.482     738.284
  H     -110.678      79.000     745.302
  H     -112.152      84.424     742.156
  H     -110.651      80.947     741.332
  H     -113.367      81.568     740.888
  H     -112.867      83.851     740.211
  H     -110.621      82.604     738.489
  H     -110.959      85.008     738.052
  H     -111.991      82.337     748.016
  H     -112.312      83.748     746.987
  H     -110.851      85.374     739.794
  P     -114.823      83.224     738.513
  C     -116.507      81.989     740.093
  O     -115.472      81.887     739.122
  O     -115.448      83.744     737.261
  O     -114.881      84.270     739.735
  H     -114.637      83.891     740.608
  H     -116.912      80.994     740.252
  H     -117.311      82.644     739.734
  H     -116.105      82.362     741.033
  H     -105.257      86.007     739.212
  H     -106.685      85.476     740.068
  H     -106.551      87.136     739.538

 3  4  5  6  7  8  9  10  11  12  22  25  29  30  31  32 0
 6-311+G(2d,p)
 ****
 33  36  37 0
 6-311+G(2d,p)
 ****
 1  2  13  14  15  16  17  18  19  20  21  23  24  26 0
 3-21G
 ****
 27  28  34  35  38  39  40  41  42  43  44  45  46  47  48 0
 3-21G
 ****


