%nproc=1
%NoSave
%Mem=1900MB
#P OB98/GEN NMR

erre ene a

0 1
  C     -193.201     510.008     177.907
  O     -193.691     509.430     176.722
  P     -193.143     509.791     175.267
  C     -191.405     507.854     175.528
  O     -191.665     509.191     175.119
  C     -190.948     506.994     174.342
  O     -190.424     505.743     174.848
  C     -192.125     506.642     173.406
  O     -191.813     506.720     172.024
  C     -192.586     505.294     173.946
  O     -193.353     504.545     173.017
  C     -191.272     504.669     174.389
  N     -193.529     500.394     175.963
  C     -193.522     500.959     174.706
  N     -194.366     500.411     173.803
  N     -192.781     501.984     174.377
  C     -192.068     502.491     175.412
  C     -191.998     502.018     176.701
  C     -192.798     500.865     177.045
  O     -192.922     500.401     178.177
  N     -191.233     502.828     177.501
  C     -190.867     503.813     176.704
  N     -191.382     503.669     175.437
  O     -193.392     511.177     174.781
  O     -194.004     508.785     174.339
  H     -193.495     503.654     173.398
  H     -194.169     509.244     173.489
  H     -194.188     499.653     176.175
  H     -190.263     504.664     176.997
  H     -190.765     504.174     173.556
  H     -193.237     505.489     174.807
  H     -195.059     499.720     174.065
  H     -192.933     507.366     173.523
  H     -194.563     500.954     172.965
  H     -190.137     507.506     173.814
  H     -192.347     507.466     175.932
  H     -190.663     507.833     176.328
  P     -192.783     507.025     170.795
  C     -192.331     509.517     171.199
  O     -193.308     508.535     170.916
  O     -194.103     506.166     171.088
  O     -192.224     506.670     169.456
  H     -194.435     505.788     170.251
  H     -192.842     510.435     171.527
  H     -191.763     509.734     170.288
  H     -191.655     509.185     171.988
  H     -193.728     509.603     178.746
  H     -193.345     511.068     177.873
  H     -192.157     509.793     178.004

 3  4  5  6  7  8  9  10  11  12  23  26  30  31 0
 6-311+G(2d,p)
 ****
 33  35  36  37  38 0
 6-311+G(2d,p)
 ****
 1  2  13  14  15  16  17  18  19  20  21  22  24  25 0
 3-21G
 ****
 27  28  29  32  34  39  40  41  42  43  44  45  46  47  48  49 0
 3-21G
 ****


