%nproc=1
%NoSave
%Mem=1900MB
#P OB98/GEN NMR

erre ene a

0 1
  C       11.607     -21.724     -68.323
  O       12.492     -20.625     -68.326
  P       13.902     -20.693     -69.081
  C       15.120     -21.415     -66.928
  O       14.807     -21.751     -68.276
  C       15.971     -22.519     -66.289
  O       15.224     -23.775     -66.343
  C       17.315     -22.736     -67.016
  O       18.460     -22.694     -66.163
  C       17.093     -24.050     -67.748
  O       18.287     -24.716     -68.109
  C       16.152     -24.786     -66.787
  N       15.481     -25.920     -67.418
  C       16.089     -27.165     -67.293
  O       17.136     -27.370     -66.685
  N       15.482     -28.197     -67.955
  C       14.422     -28.090     -68.804
  O       13.990     -29.040     -69.443
  C       13.846     -26.742     -68.927
  C       14.375     -25.737     -68.224
  O       14.564     -19.378     -69.321
  O       13.558     -21.504     -70.420
  H       18.045     -25.510     -68.621
  H       13.202     -22.398     -70.277
  H       15.912     -29.105     -67.874
  H       13.010     -26.624     -69.602
  H       13.971     -24.733     -68.294
  H       16.684     -25.147     -65.905
  H       16.558     -23.827     -68.680
  H       17.499     -21.939     -67.746
  H       16.128     -22.254     -65.240
  H       14.190     -21.310     -66.366
  H       15.635     -20.449     -66.896
  P       19.851     -21.990     -66.527
  C       20.939     -24.329     -66.863
  O       20.730     -23.027     -67.371
  O       20.558     -21.350     -65.379
  O       19.438     -20.892     -67.618
  H       20.057     -20.139     -67.572
  H       21.896     -24.702     -67.240
  H       20.142     -24.987     -67.220
  H       20.959     -24.336     -65.770
  H       10.728     -21.473     -67.766
  H       12.087     -22.567     -67.871
  H       11.335     -21.966     -69.329

 3  4  5  6  7  8  9  10  11  12  13  23  28  29  30  31  32 0
 6-311+G(2d,p)
 ****
 33  34 0
 6-311+G(2d,p)
 ****
 1  2  14  15  16  17  18  19  20  21  22  24  25  26  27 0
 3-21G
 ****
 35  36  37  38  39  40  41  42  43  44  45 0
 3-21G
 ****


