%nproc=1
%NoSave
%Mem=1900MB
#P OB98/GEN NMR

erre ene a

0 1
  C      503.569    -267.942      90.195
  O      504.278    -267.876      91.419
  H      504.050    -267.279      89.470
  H      502.540    -267.606      90.345
  H      503.578    -268.963      89.802
  P      503.805    -268.860      92.591
  C      506.148    -269.782      93.267
  O      505.037    -268.968      93.617
  C      507.243    -269.643      94.327
  O      507.748    -268.277      94.296
  C      506.752    -269.923      95.752
  O      507.790    -270.588      96.483
  C      506.526    -268.531      96.324
  O      506.583    -268.483      97.746
  C      507.661    -267.751      95.643
  N      507.416    -266.313      95.621
  C      507.743    -265.587      96.758
  O      508.289    -266.059      97.760
  N      507.413    -264.252      96.731
  C      506.782    -263.602      95.707
  O      506.489    -262.412      95.755
  C      506.454    -264.425      94.528
  C      506.783    -265.718      94.544
  O      503.790    -270.297      91.886
  O      502.497    -268.522      93.230
  H      502.914    -270.479      91.497
  H      506.431    -267.553      98.019
  H      507.646    -263.716      97.554
  H      505.945    -263.940      93.713
  H      506.533    -266.355      93.695
  H      508.614    -267.960      96.132
  H      505.553    -268.152      96.004
  H      505.842    -270.526      95.775
  H      508.076    -270.296      94.060
  H      506.538    -269.454      92.296
  H      505.824    -270.824      93.186
  P      507.340    -271.640      97.617
  C      509.216    -273.335      96.929
  O      508.651    -272.513      97.941
  O      506.401    -272.620      96.778
  O      506.692    -270.983      98.789
  H      506.713    -272.780      95.866
  H      510.076    -273.839      97.318
  H      509.505    -272.728      96.096
  H      508.493    -274.057      96.611

 6  7  8  9  10  11  12  13  14  15  16  27  31  32  33  34  35 0
 6-311+G(2d,p)
 ****
 36  37 0
 6-311+G(2d,p)
 ****
 1  2  3  4  5  17  18  19  20  21  22  23  24  25 0
 3-21G
 ****
 26  28  29  30  38  39  40  41  42  43  44  45 0
 3-21G
 ****


