%nproc=1
%NoSave
%Mem=1900MB
#P OB98/GEN NMR

erre ene a

0 1
  C     -140.853      44.200     867.182
  O     -141.964      44.369     868.072
  P     -143.350      43.689     867.637
  C     -144.484      45.199     865.859
  O     -143.649      44.073     866.105
  C     -144.574      45.518     864.358
  O     -144.993      44.347     863.596
  C     -145.569      46.641     864.017
  O     -145.055      47.353     862.883
  C     -146.823      45.875     863.593
  O     -147.696      46.690     862.819
  C     -146.164      44.707     862.855
  N     -148.969      41.946     859.578
  C     -148.166      43.016     859.404
  N     -147.477      43.705     860.340
  C     -147.639      43.151     861.553
  C     -148.420      42.065     861.887
  C     -149.124      41.440     860.828
  N     -149.963      40.366     861.003
  N     -148.369      41.818     863.244
  C     -147.569      42.762     863.719
  N     -147.082      43.564     862.726
  O     -144.446      44.525     868.458
  O     -143.438      42.217     867.960
  H     -148.081      47.363     863.414
  H     -144.811      43.975     869.186
  H     -148.087      43.376     858.377
  H     -147.313      42.890     864.770
  H     -145.851      44.978     861.829
  H     -147.361      45.527     864.479
  H     -145.769      47.340     864.838
  H     -143.582      45.796     863.996
  H     -144.075      46.094     866.387
  H     -150.443      40.005     860.215
  H     -150.128      40.018     861.952
  H     -145.481      45.022     866.297
  P     -144.092      48.584     863.189
  C     -145.931      50.434     863.213
  O     -144.992      49.686     863.961
  O     -143.852      49.248     861.747
  O     -142.806      48.213     863.861
  H     -143.000      49.732     861.739
  H     -146.862      50.531     863.797
  H     -146.177      49.962     862.259
  H     -145.532      51.436     863.008
  H     -139.995      44.697     867.584
  H     -141.094      44.619     866.227
  H     -140.641      43.157     867.070

 3  4  5  6  7  8  9  10  11  12  22  25  29  30  31  32 0
 6-311+G(2d,p)
 ****
 33  36  37 0
 6-311+G(2d,p)
 ****
 1  2  13  14  15  16  17  18  19  20  21  23  24  26 0
 3-21G
 ****
 27  28  34  35  38  39  40  41  42  43  44  45  46  47  48 0
 3-21G
 ****


