%nproc=1
%NoSave
%Mem=1900MB
#P OB98/GEN NMR

erre ene a

0 1
  C     -253.651     -13.762    -110.556
  O     -254.040     -13.389    -109.244
  P     -255.524     -13.686    -108.717
  C     -257.285     -11.992    -107.919
  O     -256.371     -12.343    -108.951
  C     -257.966     -10.662    -108.234
  O     -257.035      -9.584    -107.966
  C     -258.405     -10.531    -109.687
  O     -259.634      -9.802    -109.736
  C     -257.324      -9.685    -110.335
  O     -257.830      -8.979    -111.478
  C     -256.893      -8.797    -109.162
  N     -253.684      -5.390    -111.271
  C     -255.027      -5.526    -111.343
  N     -255.812      -6.470    -110.781
  C     -255.077      -7.303    -110.028
  C     -253.703      -7.288    -109.851
  C     -252.991      -6.275    -110.517
  N     -251.623      -6.130    -110.428
  N     -253.304      -8.324    -109.031
  C     -254.417      -8.938    -108.703
  N     -255.518      -8.355    -109.271
  O     -255.604     -14.237    -107.335
  O     -256.138     -14.694    -109.795
  H     -257.075      -8.496    -111.877
  H     -256.695     -15.364    -109.354
  H     -255.539      -4.778    -111.944
  H     -254.484      -9.813    -108.072
  H     -257.537      -7.916    -109.067
  H     -256.504     -10.332    -110.672
  H     -258.526     -11.503    -110.183
  H     -258.820     -10.535    -107.555
  H     -256.729     -11.898    -106.982
  H     -251.218      -5.306    -110.838
  H     -251.133      -6.679    -109.735
  H     -258.027     -12.789    -107.804
  P     -260.803     -10.452    -110.636
  C     -262.977      -9.230    -111.388
  O     -261.572      -9.199    -111.268
  O     -261.623     -11.434    -109.865
  O     -259.958     -11.083    -111.839
  H     -259.098     -10.619    -111.956
  H     -263.311      -8.311    -111.875
  H     -263.439      -9.286    -110.398
  H     -263.291     -10.087    -111.993
  H     -252.631     -13.481    -110.719
  H     -254.276     -13.265    -111.268
  H     -253.752     -14.821    -110.671

 3  4  5  6  7  8  9  10  11  12  22  25  29  30  31  32 0
 6-311+G(2d,p)
 ****
 33  36  37 0
 6-311+G(2d,p)
 ****
 1  2  13  14  15  16  17  18  19  20  21  23  24  26 0
 3-21G
 ****
 27  28  34  35  38  39  40  41  42  43  44  45  46  47  48 0
 3-21G
 ****


