%nproc=1
%NoSave
%Mem=1900MB
#P OB98/GEN NMR

erre ene a

0 1
  C       98.129    -181.190    -196.735
  O       96.729    -181.116    -196.901
  H       98.423    -182.242    -196.704
  H       98.415    -180.720    -195.791
  H       98.652    -180.707    -197.564
  P       96.066    -179.705    -197.268
  C       94.926    -180.882    -199.259
  O       94.755    -180.031    -198.135
  C       93.586    -181.476    -199.702
  O       93.222    -182.550    -198.786
  C       92.428    -180.467    -199.709
  O       91.520    -180.864    -200.744
  C       91.807    -180.701    -198.347
  O       90.501    -180.176    -198.276
  C       91.934    -182.221    -198.231
  N       91.791    -182.691    -196.855
  C       91.082    -183.871    -196.672
  O       90.561    -184.496    -197.597
  N       90.947    -184.298    -195.380
  C       91.390    -183.638    -194.273
  O       91.212    -184.050    -193.134
  C       92.095    -182.370    -194.523
  C       92.264    -181.962    -195.783
  O       96.982    -178.698    -197.879
  O       95.448    -179.187    -195.885
  H       90.526    -179.196    -198.319
  H       95.453    -178.211    -195.860
  H       90.444    -185.159    -195.231
  H       92.452    -181.817    -193.665
  H       92.780    -181.034    -196.000
  H       91.167    -182.721    -198.840
  H       92.397    -180.209    -197.565
  H       92.756    -179.437    -199.862
  H       93.716    -181.935    -200.690
  H       95.612    -181.687    -198.973
  H       95.370    -180.314    -200.083
  P       91.912    -180.788    -202.299
  C       90.147    -182.615    -202.722
  O       90.698    -181.378    -203.166
  O       93.243    -181.383    -202.625
  O       91.891    -179.225    -202.647
  H       92.509    -179.044    -203.378
  H       89.350    -182.905    -203.375
  H       89.770    -182.501    -201.727
  H       90.907    -183.368    -202.731

 6  7  8  9  10  11  12  13  14  15  16  26  31  32  33  34  35 0
 6-311+G(2d,p)
 ****
 36  37 0
 6-311+G(2d,p)
 ****
 1  2  3  4  5  17  18  19  20  21  22  23  24  25 0
 3-21G
 ****
 27  28  29  30  38  39  40  41  42  43  44  45 0
 3-21G
 ****


