%nproc=1
%NoSave
%Mem=1900MB
#P OB98/GEN NMR

erre ene a

0 1
  C     -663.411    -975.639     176.711
  O     -662.894    -976.960     176.814
  P     -661.937    -977.292     178.055
  C     -659.800    -978.234     176.908
  O     -660.436    -977.103     177.518
  C     -658.398    -977.866     176.436
  O     -658.469    -976.784     175.472
  C     -657.475    -977.379     177.519
  O     -656.866    -978.470     178.235
  C     -656.417    -976.648     176.698
  O     -655.512    -977.605     176.115
  C     -657.255    -975.987     175.608
  N     -657.799    -971.293     173.651
  C     -657.362    -972.457     173.088
  N     -657.241    -973.660     173.699
  C     -657.581    -973.591     174.995
  C     -658.000    -972.481     175.700
  C     -658.128    -971.281     174.961
  N     -658.602    -970.102     175.513
  N     -658.274    -972.783     177.002
  C     -658.009    -974.094     177.103
  N     -657.605    -974.618     175.907
  O     -662.083    -978.885     178.219
  O     -662.271    -976.569     179.327
  H     -654.848    -977.090     175.604
  H     -661.872    -979.147     179.122
  H     -657.091    -972.418     172.053
  H     -658.104    -974.669     178.014
  H     -656.741    -976.005     174.632
  H     -655.807    -975.944     177.300
  H     -657.958    -976.671     178.198
  H     -657.967    -978.737     175.895
  H     -660.397    -978.562     176.045
  H     -658.824    -969.353     174.874
  H     -659.036    -970.140     176.430
  H     -659.748    -979.050     177.632
  P     -656.060    -978.088     179.557
  C     -653.825    -979.010     178.612
  O     -654.539    -977.882     179.094
  O     -656.031    -979.470     180.363
  O     -656.649    -976.975     180.372
  H     -655.929    -979.308     181.337
  H     -652.951    -978.658     178.043
  H     -654.446    -979.628     177.949
  H     -653.470    -979.624     179.447
  H     -664.029    -975.565     175.840
  H     -662.601    -974.944     176.634
  H     -663.992    -975.415     177.581

 3  4  5  6  7  8  9  10  11  12  22  25  29  30  31  32 0
 6-311+G(2d,p)
 ****
 33  36  37 0
 6-311+G(2d,p)
 ****
 1  2  13  14  15  16  17  18  19  20  21  23  24  26 0
 3-21G
 ****
 27  28  34  35  38  39  40  41  42  43  44  45  46  47  48 0
 3-21G
 ****


