%nproc=1
%NoSave
%Mem=1900MB
#P OB98/GEN NMR

erre ene a

0 1
  C     -161.900     127.158     243.721
  O     -161.885     127.250     242.311
  H     -162.915     127.354     244.072
  H     -161.232     127.908     244.153
  H     -161.602     126.160     244.051
  P     -160.561     126.807     241.523
  C     -161.205     124.317     241.701
  O     -160.226     125.309     241.983
  C     -160.565     122.931     241.734
  O     -161.577     121.912     241.590
  C     -159.564     122.683     240.611
  O     -158.339     123.342     240.870
  C     -159.490     121.162     240.632
  O     -158.625     120.706     241.683
  C     -160.964     120.786     240.926
  N     -161.712     120.413     239.726
  C     -161.509     119.119     239.249
  O     -160.722     118.328     239.766
  N     -162.237     118.773     238.143
  C     -163.059     119.599     237.432
  O     -163.648     119.254     236.411
  C     -163.207     120.962     237.961
  C     -162.538     121.301     239.066
  O     -159.411     127.758     241.597
  O     -161.068     126.616     240.015
  H     -157.718     120.971     241.435
  H     -160.832     127.400     239.486
  H     -162.096     117.846     237.775
  H     -163.845     121.648     237.423
  H     -162.628     122.304     239.472
  H     -161.005     119.944     241.631
  H     -159.100     120.747     239.703
  H     -159.984     122.999     239.650
  H     -160.091     122.797     242.714
  H     -161.618     124.504     240.703
  H     -162.008     124.391     242.440
  P     -157.240     123.505     239.719
  C     -158.495     125.500     238.719
  O     -157.952     124.210     238.464
  O     -156.478     122.265     239.386
  O     -156.267     124.647     240.273
  H     -155.422     124.250     240.569
  H     -158.944     125.881     237.826
  H     -157.714     126.160     239.035
  H     -159.235     125.430     239.488

 6  7  8  9  10  11  12  13  14  15  16  26  31  32  33  34  35 0
 6-311+G(2d,p)
 ****
 36  37 0
 6-311+G(2d,p)
 ****
 1  2  3  4  5  17  18  19  20  21  22  23  24  25 0
 3-21G
 ****
 27  28  29  30  38  39  40  41  42  43  44  45 0
 3-21G
 ****


