%nproc=1
%NoSave
%Mem=1900MB
#P OB98/GEN NMR

erre ene a

0 1
  C     -321.059     150.343     167.173
  O     -321.726     151.430     166.561
  H     -320.716     149.651     166.393
  H     -321.737     149.808     167.847
  H     -320.188     150.699     167.734
  P     -322.395     152.503     167.554
  C     -324.787     152.670     168.581
  O     -323.903     151.974     167.719
  C     -326.163     152.003     168.561
  O     -326.788     152.173     167.264
  C     -326.129     150.496     168.801
  O     -325.989     150.154     170.170
  C     -327.497     150.107     168.268
  O     -328.514     150.470     169.219
  C     -327.582     150.991     167.000
  N     -327.107     150.306     165.788
  C     -327.938     149.330     165.237
  O     -329.021     149.054     165.770
  N     -327.519     148.647     164.113
  C     -326.370     148.929     163.576
  N     -326.002     148.217     162.483
  C     -325.465     149.964     164.112
  C     -325.888     150.604     165.195
  O     -322.587     153.799     166.627
  O     -321.655     152.759     168.821
  H     -328.351     149.935     170.023
  H     -323.108     154.486     167.110
  H     -324.512     150.167     163.636
  H     -325.274     151.382     165.656
  H     -328.614     151.314     166.817
  H     -327.597     149.032     168.083
  H     -325.364     150.007     168.190
  H     -326.802     152.517     169.295
  H     -326.607     147.472     162.165
  H     -324.872     153.703     168.234
  H     -325.059     148.235     162.108
  H     -324.402     152.665     169.605
  P     -324.808     149.149     170.568
  C     -324.760     146.597     171.106
  O     -325.380     147.660     170.384
  O     -324.731     149.292     172.167
  O     -323.487     149.425     169.917
  H     -323.799     149.275     172.470
  H     -325.253     145.675     170.877
  H     -324.833     146.789     172.156
  H     -323.729     146.529     170.826

 6  7  8  9  10  11  12  13  14  15  16  26  30  31  32  33  35 0
 6-311+G(2d,p)
 ****
 37  38 0
 6-311+G(2d,p)
 ****
 1  2  3  4  5  17  18  19  20  21  22  23  24  25 0
 3-21G
 ****
 27  28  29  34  36  39  40  41  42  43  44  45  46 0
 3-21G
 ****


