%nproc=1
%NoSave
%Mem=1900MB
#P OB98/GEN NMR

erre ene a

0 1
  C      -84.321    -155.494     210.399
  O      -83.236    -155.243     209.508
  P      -82.063    -154.248     209.969
  C      -80.137    -155.344     208.663
  O      -80.948    -154.188     208.811
  C      -79.030    -155.151     207.618
  O      -79.588    -155.070     206.278
  C      -78.169    -153.895     207.832
  O      -76.835    -154.227     207.438
  C      -78.785    -152.912     206.855
  O      -77.925    -151.823     206.558
  C      -79.103    -153.847     205.683
  N      -80.069    -153.275     204.759
  C      -79.819    -153.434     203.394
  O      -78.766    -153.943     203.016
  N      -80.761    -152.978     202.496
  C      -81.777    -152.295     202.925
  N      -82.697    -151.880     202.012
  C      -81.979    -151.955     204.352
  C      -81.108    -152.494     205.203
  O      -81.528    -154.481     211.342
  O      -82.759    -152.803     209.861
  H      -77.176    -152.146     206.009
  H      -82.404    -152.234     210.570
  H      -82.791    -151.312     204.652
  H      -81.172    -152.308     206.267
  H      -78.192    -154.095     205.122
  H      -79.712    -152.502     207.279
  H      -78.158    -153.544     208.867
  H      -78.381    -156.045     207.645
  H      -82.535    -152.099     201.035
  H      -80.764    -156.191     208.373
  H      -83.541    -151.388     202.275
  H      -79.714    -155.612     209.643
  P      -75.826    -154.840     208.533
  C      -74.775    -156.594     206.929
  O      -74.575    -155.471     207.757
  O      -76.621    -156.161     209.003
  O      -75.532    -153.971     209.714
  H      -76.335    -156.392     209.903
  H      -73.904    -156.715     206.277
  H      -75.662    -156.475     206.299
  H      -74.876    -157.498     207.545
  H      -85.009    -156.173     209.941
  H      -84.821    -154.574     210.620
  H      -83.947    -155.923     211.305

 3  4  5  6  7  8  9  10  11  12  13  23  27  28  29  30  32 0
 6-311+G(2d,p)
 ****
 34  35 0
 6-311+G(2d,p)
 ****
 1  2  14  15  16  17  18  19  20  21  22  24  25  26 0
 3-21G
 ****
 31  33  36  37  38  39  40  41  42  43  44  45  46 0
 3-21G
 ****


