%nproc=1
%NoSave
%Mem=1900MB
#P OB98/GEN NMR

erre ene a

0 1
  C      178.950    -306.968    -181.746
  O      179.027    -305.574    -181.533
  H      178.774    -307.148    -182.808
  H      178.121    -307.395    -181.177
  H      179.889    -307.449    -181.458
  P      179.218    -305.030    -180.038
  C      180.240    -302.691    -180.416
  O      179.067    -303.434    -180.102
  C      180.371    -302.527    -181.936
  O      179.146    -301.924    -182.421
  C      181.546    -301.621    -182.330
  O      182.419    -302.225    -183.281
  C      180.862    -300.314    -182.715
  O      181.591    -299.522    -183.631
  C      179.489    -300.773    -183.216
  N      178.451    -299.750    -183.114
  C      178.294    -298.890    -184.198
  O      178.949    -298.933    -185.235
  N      177.316    -297.938    -184.059
  C      176.513    -297.758    -182.971
  O      175.653    -296.889    -182.908
  C      176.748    -298.679    -181.848
  C      177.690    -299.616    -181.969
  O      180.437    -305.514    -179.327
  O      177.880    -305.486    -179.286
  H      181.553    -299.976    -184.499
  H      178.078    -306.243    -178.700
  H      177.181    -297.319    -184.843
  H      176.138    -298.557    -180.963
  H      177.889    -300.315    -181.159
  H      179.544    -301.084    -184.260
  H      180.727    -299.715    -181.808
  H      182.201    -301.435    -181.470
  H      180.454    -303.519    -182.392
  H      181.101    -303.236    -180.018
  H      180.189    -301.705    -179.940
  P      183.735    -303.051    -182.920
  C      184.332    -303.603    -185.422
  O      184.716    -303.022    -184.181
  O      183.517    -304.375    -182.268
  O      184.498    -302.108    -181.856
  H      184.971    -302.710    -181.247
  H      185.122    -303.480    -186.133
  H      183.448    -303.120    -185.783
  H      184.137    -304.646    -185.282

 6  7  8  9  10  11  12  13  14  15  16  26  31  32  33  34  35 0
 6-311+G(2d,p)
 ****
 36  37 0
 6-311+G(2d,p)
 ****
 1  2  3  4  5  17  18  19  20  21  22  23  24  25 0
 3-21G
 ****
 27  28  29  30  38  39  40  41  42  43  44  45 0
 3-21G
 ****


