%nproc=1
%NoSave
%Mem=1900MB
#P OB98/GEN NMR

erre ene a

0 1
  C      -33.106    -181.821     -16.069
  O      -32.992    -181.349     -14.745
  H      -34.112    -181.599     -16.433
  H      -32.958    -182.905     -16.086
  H      -32.380    -181.342     -16.730
  P      -31.532    -181.139     -14.126
  C      -31.529    -183.268     -12.668
  O      -30.938    -182.588     -13.768
  C      -30.480    -183.954     -11.790
  O      -29.690    -184.870     -12.580
  C      -29.492    -182.958     -11.182
  O      -29.922    -182.329      -9.989
  C      -28.277    -183.845     -10.926
  O      -28.388    -184.516      -9.659
  C      -28.343    -184.854     -12.075
  N      -23.719    -185.625     -14.105
  C      -24.236    -186.101     -12.916
  N      -23.394    -186.824     -12.144
  N      -25.459    -185.868     -12.517
  C      -26.153    -185.051     -13.345
  C      -25.742    -184.506     -14.541
  C      -24.402    -184.816     -15.000
  O      -23.892    -184.413     -16.042
  N      -26.724    -183.727     -15.106
  C      -27.697    -183.740     -14.216
  N      -27.407    -184.551     -13.142
  O      -31.823    -180.518     -12.675
  O      -30.621    -180.250     -14.918
  H      -27.589    -185.056      -9.525
  H      -31.063    -179.982     -12.384
  H      -22.778    -185.858     -14.373
  H      -28.635    -183.206     -14.310
  H      -28.119    -185.871     -11.728
  H      -27.350    -183.262     -10.893
  H      -22.413    -186.932     -12.353
  H      -29.212    -182.198     -11.919
  H      -23.644    -186.962     -11.163
  H      -30.988    -184.546     -11.018
  H      -32.209    -184.013     -13.088
  H      -32.132    -182.577     -12.075
  P      -29.396    -180.862      -9.621
  C      -27.479    -181.839      -8.157
  O      -27.847    -181.004      -9.232
  O      -30.115    -180.568      -8.221
  O      -29.701    -179.813     -10.634
  H      -30.926    -180.046      -8.364
  H      -26.416    -181.817      -8.036
  H      -27.795    -182.841      -8.360
  H      -27.947    -181.492      -7.260

 6  7  8  9  10  11  12  13  14  15  26  29  33  34 0
 6-311+G(2d,p)
 ****
 36  38  39  40  41 0
 6-311+G(2d,p)
 ****
 1  2  3  4  5  16  17  18  19  20  21  22  23  24  25 0
 3-21G
 ****
 27  28  30  31  32  35  37  42  43  44  45  46  47 0
 3-21G
 ****
 48  49 0
 3-21G
 ****


