%nproc=1
%NoSave
%Mem=1900MB
#P OB98/GEN NMR

erre ene a

0 1
  C      -38.755    -704.544    -264.483
  O      -39.044    -703.545    -265.443
  H      -39.686    -704.827    -263.985
  H      -38.063    -704.159    -263.732
  H      -38.331    -705.432    -264.961
  P      -37.875    -703.060    -266.424
  C      -39.242    -703.471    -268.571
  O      -38.090    -703.819    -267.817
  C      -38.866    -703.286    -270.040
  O      -38.163    -704.449    -270.524
  C      -40.065    -703.113    -270.968
  O      -40.605    -701.810    -270.866
  C      -39.436    -703.444    -272.310
  O      -38.726    -702.312    -272.834
  C      -38.464    -704.582    -271.932
  N      -38.998    -705.907    -272.235
  C      -38.956    -706.306    -273.569
  O      -38.529    -705.589    -274.475
  N      -39.450    -707.554    -273.838
  C      -40.074    -708.374    -272.941
  O      -40.582    -709.447    -273.253
  C      -40.114    -707.896    -271.556
  C      -39.582    -706.703    -271.271
  O      -36.490    -703.133    -265.870
  O      -38.281    -701.549    -266.774
  H      -39.398    -701.627    -273.026
  H      -37.706    -700.936    -266.284
  H      -39.438    -707.853    -274.800
  H      -40.588    -708.526    -270.814
  H      -39.606    -706.332    -270.251
  H      -37.515    -704.464    -272.470
  H      -40.180    -703.725    -273.053
  H      -40.828    -703.869    -270.737
  H      -38.186    -702.424    -270.115
  H      -39.652    -702.532    -268.179
  H      -39.994    -704.262    -268.458
  P      -41.874    -701.402    -271.753
  C      -43.025    -700.049    -269.899
  O      -43.113    -701.177    -270.759
  O      -42.154    -702.291    -272.920
  O      -41.537    -699.916    -272.240
  H      -41.498    -699.893    -273.218
  H      -43.900    -699.999    -269.286
  H      -42.950    -699.158    -270.486
  H      -42.159    -700.141    -269.278

 6  7  8  9  10  11  12  13  14  15  16  26  31  32  33  34  35 0
 6-311+G(2d,p)
 ****
 36  37 0
 6-311+G(2d,p)
 ****
 1  2  3  4  5  17  18  19  20  21  22  23  24  25 0
 3-21G
 ****
 27  28  29  30  38  39  40  41  42  43  44  45 0
 3-21G
 ****


