%nproc=1
%NoSave
%Mem=1900MB
#P OB98/GEN NMR

erre ene a

0 1
  C       86.966    -300.061    -331.338
  O       85.598    -299.841    -331.045
  P       84.517    -301.002    -331.295
  C       83.715    -299.852    -333.452
  O       84.200    -301.062    -332.869
  C       83.278    -300.111    -334.895
  O       84.418    -300.421    -335.740
  C       82.322    -301.278    -335.068
  O       81.021    -300.976    -334.598
  C       82.423    -301.522    -336.571
  O       81.595    -300.594    -337.292
  C       83.917    -301.225    -336.835
  N       84.699    -302.440    -337.009
  C       84.858    -302.895    -338.313
  O       84.279    -302.322    -339.249
  N       85.657    -303.990    -338.542
  C       86.150    -304.649    -337.534
  N       86.981    -305.689    -337.823
  C       85.876    -304.298    -336.127
  C       85.164    -303.180    -335.932
  O       83.314    -300.955    -330.416
  O       85.348    -302.362    -331.056
  H       84.845    -302.924    -330.435
  H       80.695    -300.692    -336.940
  H       86.253    -304.921    -335.329
  H       84.933    -302.829    -334.934
  H       84.025    -300.606    -337.730
  H       82.104    -302.526    -336.845
  H       82.714    -302.153    -334.533
  H       82.816    -299.176    -335.278
  H       87.163    -305.891    -338.802
  H       84.513    -299.108    -333.434
  H       87.657    -306.043    -337.152
  H       82.874    -299.478    -332.860
  P       80.034    -302.218    -334.343
  C       78.221    -301.662    -336.115
  O       79.275    -302.525    -335.729
  O       78.885    -301.604    -333.414
  O       80.685    -303.414    -333.696
  H       78.595    -302.271    -332.763
  H       78.063    -301.778    -337.190
  H       78.457    -300.616    -335.900
  H       77.314    -301.951    -335.587
  H       87.526    -299.179    -331.107
  H       87.076    -300.292    -332.377
  H       87.330    -300.878    -330.751

 3  4  5  6  7  8  9  10  11  12  13  24  27  28  29  30  32 0
 6-311+G(2d,p)
 ****
 34  35 0
 6-311+G(2d,p)
 ****
 1  2  14  15  16  17  18  19  20  21  22  23  25  26 0
 3-21G
 ****
 31  33  36  37  38  39  40  41  42  43  44  45  46 0
 3-21G
 ****


