%nproc=1
%NoSave
%Mem=1900MB
#P OB98/GEN NMR

erre ene a

0 1
  C     -561.737    -131.654    -480.979
  O     -561.280    -132.982    -480.868
  P     -560.524    -133.474    -479.550
  C     -561.593    -135.780    -479.954
  O     -560.390    -135.073    -479.680
  C     -561.284    -137.251    -480.262
  O     -560.413    -137.820    -479.250
  C     -562.508    -138.152    -480.273
  O     -563.468    -137.936    -481.289
  C     -561.853    -139.526    -480.213
  O     -561.411    -139.950    -481.502
  C     -560.638    -139.251    -479.278
  N     -560.860    -139.787    -477.936
  C     -560.336    -141.061    -477.698
  O     -559.721    -141.713    -478.533
  N     -560.562    -141.573    -476.454
  C     -561.296    -140.980    -475.456
  O     -561.496    -141.521    -474.376
  C     -561.837    -139.650    -475.772
  C     -561.602    -139.119    -476.977
  O     -561.115    -133.006    -478.256
  O     -559.014    -132.994    -479.783
  H     -560.945    -140.804    -481.385
  H     -558.593    -133.363    -480.576
  H     -560.207    -142.488    -476.265
  H     -562.408    -139.147    -475.000
  H     -561.990    -138.145    -477.234
  H     -559.731    -139.706    -479.691
  H     -562.552    -140.288    -479.844
  H     -563.045    -138.012    -479.327
  H     -560.742    -137.284    -481.215
  H     -562.081    -135.324    -480.823
  H     -562.275    -135.685    -479.100
  P     -565.046    -137.957    -481.019
  C     -565.393    -136.239    -482.928
  O     -565.784    -137.471    -482.359
  O     -565.515    -137.392    -479.718
  O     -565.351    -139.543    -481.035
  H     -566.098    -139.723    -480.438
  H     -566.030    -136.043    -483.795
  H     -564.348    -136.288    -483.258
  H     -565.524    -135.418    -482.212
  H     -562.214    -131.519    -481.927
  H     -560.907    -130.983    -480.898
  H     -562.437    -131.451    -480.196

 3  4  5  6  7  8  9  10  11  12  13  23  28  29  30  31  32 0
 6-311+G(2d,p)
 ****
 33  34 0
 6-311+G(2d,p)
 ****
 1  2  14  15  16  17  18  19  20  21  22  24  25  26  27 0
 3-21G
 ****
 35  36  37  38  39  40  41  42  43  44  45 0
 3-21G
 ****


