%nproc=1
%NoSave
%Mem=1900MB
#P OB98/GEN NMR

erre ene a

0 1
  C      285.106    -130.536    -120.312
  O      285.432    -130.097    -119.007
  P      286.691    -129.101    -118.867
  C      287.465    -127.395    -117.046
  O      286.440    -128.247    -117.533
  C      287.274    -127.170    -115.543
  O      285.960    -126.631    -115.279
  C      287.394    -128.434    -114.701
  O      288.759    -128.740    -114.454
  C      286.618    -128.041    -113.450
  O      287.432    -127.250    -112.566
  C      285.469    -127.205    -114.041
  N      281.216    -128.990    -111.965
  C      282.316    -128.404    -111.366
  N      282.255    -128.226    -110.029
  N      283.382    -128.022    -112.023
  C      283.309    -128.270    -113.351
  C      282.282    -128.862    -114.055
  C      281.091    -129.230    -113.326
  O      280.051    -129.664    -113.817
  N      282.584    -128.968    -115.389
  C      283.777    -128.420    -115.494
  N      284.253    -127.960    -114.292
  O      286.461    -128.058    -120.051
  O      288.030    -129.765    -118.930
  H      286.945    -127.090    -111.735
  H      287.004    -128.288    -120.827
  H      280.417    -129.248    -111.408
  H      284.324    -128.307    -116.416
  H      285.191    -126.370    -113.384
  H      286.292    -128.910    -112.876
  H      281.476    -128.518    -109.454
  H      286.892    -129.272    -115.200
  H      283.053    -127.802    -109.574
  H      288.009    -126.425    -115.221
  H      287.407    -126.434    -117.564
  H      288.441    -127.851    -117.247
  P      289.071    -129.974    -113.477
  C      291.141    -131.465    -112.977
  O      290.574    -130.449    -113.782
  O      288.169    -131.155    -114.069
  O      288.763    -129.719    -112.042
  H      287.831    -131.707    -113.338
  H      291.864    -132.021    -113.579
  H      290.381    -132.156    -112.602
  H      291.658    -131.005    -112.132
  H      284.258    -131.187    -120.268
  H      285.939    -131.063    -120.730
  H      284.875    -129.690    -120.925

 3  4  5  6  7  8  9  10  11  12  23  26  30  31 0
 6-311+G(2d,p)
 ****
 33  35  36  37  38 0
 6-311+G(2d,p)
 ****
 1  2  13  14  15  16  17  18  19  20  21  22  24  25 0
 3-21G
 ****
 27  28  29  32  34  39  40  41  42  43  44  45  46  47  48  49 0
 3-21G
 ****


