%nproc=1
%NoSave
%Mem=1900MB
#P OB98/GEN NMR

erre ene a

0 1
  C       13.041    -157.370      -8.946
  O       14.201    -156.614      -8.646
  P       14.066    -155.013      -8.663
  C       14.223    -154.795     -11.247
  O       14.820    -154.509      -9.988
  C       14.935    -154.055     -12.381
  O       14.294    -154.389     -13.636
  C       14.928    -152.531     -12.235
  O       16.180    -152.040     -12.712
  C       13.831    -152.091     -13.186
  O       14.017    -150.745     -13.619
  C       13.951    -153.151     -14.292
  N       12.721    -153.281     -15.068
  C       12.855    -153.337     -16.459
  O       13.963    -153.201     -16.977
  N       11.727    -153.495     -17.227
  C       10.560    -153.487     -16.661
  N        9.474    -153.648     -17.464
  C       10.370    -153.304     -15.209
  C       11.481    -153.230     -14.480
  O       15.047    -154.558      -7.484
  O       12.675    -154.504      -8.471
  H       14.864    -150.699     -14.117
  H       14.721    -153.746      -7.053
  H        9.372    -153.267     -14.793
  H       11.438    -153.119     -13.404
  H       14.770    -152.901     -14.979
  H       12.855    -152.164     -12.690
  H       14.770    -152.204     -11.203
  H       15.967    -154.424     -12.435
  H        9.630    -153.757     -18.458
  H       13.179    -154.467     -11.229
  H        8.526    -153.654     -17.113
  H       14.239    -155.875     -11.420
  P       17.088    -151.199     -11.691
  C       15.981    -149.014     -12.461
  O       17.190    -149.735     -12.337
  O       18.548    -151.789     -12.003
  O       16.774    -151.276     -10.235
  H       19.197    -151.397     -11.391
  H       16.210    -147.995     -12.784
  H       15.458    -148.973     -11.503
  H       15.344    -149.485     -13.217
  H       13.273    -158.413      -8.899
  H       12.700    -157.125      -9.930
  H       12.274    -157.143      -8.236

 3  4  5  6  7  8  9  10  11  12  13  21  23  27  28  29  30  32 0
 6-311+G(2d,p)
 ****
 34  35 0
 6-311+G(2d,p)
 ****
 1  2  14  15  16  17  18  19  20  22  24  25  26 0
 3-21G
 ****
 31  33  36  37  38  39  40  41  42  43  44  45  46 0
 3-21G
 ****


