%nproc=1
%NoSave
%Mem=1900MB
#P OB98/GEN NMR

erre ene a

0 1
  C      -45.458     185.963     -51.465
  O      -46.534     186.866     -51.306
  H      -45.467     185.581     -52.489
  H      -45.570     185.120     -50.778
  H      -44.499     186.462     -51.286
  P      -46.631     187.724     -49.956
  C      -46.886     187.213     -47.438
  O      -46.875     186.685     -48.756
  C      -47.526     186.210     -46.477
  O      -46.854     184.936     -46.570
  C      -47.448     186.614     -45.010
  O      -48.394     187.626     -44.711
  C      -47.702     185.277     -44.332
  O      -49.111     184.974     -44.313
  C      -46.945     184.307     -45.272
  N      -45.619     183.940     -44.772
  C      -45.555     183.492     -43.457
  O      -46.538     183.430     -42.719
  N      -44.305     183.125     -43.009
  C      -43.142     183.242     -43.708
  O      -42.041     182.955     -43.245
  C      -43.262     183.762     -45.081
  C      -44.479     184.078     -45.544
  O      -47.578     188.880     -49.983
  O      -45.121     188.209     -49.710
  H      -49.385     184.874     -45.247
  H      -45.020     189.135     -50.003
  H      -44.241     182.810     -42.057
  H      -42.356     183.872     -45.665
  H      -44.591     184.463     -46.552
  H      -47.524     183.383     -45.414
  H      -47.360     185.253     -43.299
  H      -46.429     186.945     -44.760
  H      -48.569     186.061     -46.788
  H      -47.472     188.144     -47.437
  H      -45.854     187.437     -47.136
  P      -48.524     188.210     -43.227
  C      -49.307     187.378     -40.932
  O      -49.034     187.015     -42.280
  O      -49.307     189.478     -43.107
  O      -47.007     188.425     -42.756
  H      -46.794     189.374     -42.758
  H      -49.638     186.516     -40.391
  H      -50.071     188.127     -40.912
  H      -48.418     187.764     -40.479

 6  7  8  9  10  11  12  13  14  15  16  26  31  32  33  34  35 0
 6-311+G(2d,p)
 ****
 36  37 0
 6-311+G(2d,p)
 ****
 1  2  3  4  5  17  18  19  20  21  22  23  24  25 0
 3-21G
 ****
 27  28  29  30  38  39  40  41  42  43  44  45 0
 3-21G
 ****


