%nproc=1
%NoSave
%Mem=1900MB
#P OB98/GEN NMR

erre ene a

0 1
  C      -12.822      20.828      -6.142
  O      -11.438      21.014      -6.372
  P      -10.995      22.252      -7.289
  C      -11.597      22.931      -9.733
  O      -11.372      21.882      -8.801
  C      -11.723      22.350     -11.143
  O      -10.472      21.758     -11.556
  C      -12.758      21.239     -11.254
  O      -14.074      21.761     -11.324
  C      -12.316      20.533     -12.528
  O      -12.827      21.202     -13.692
  C      -10.781      20.668     -12.451
  N      -10.129      19.429     -12.042
  C      -10.247      18.359     -12.925
  O      -10.879      18.429     -13.979
  N       -9.648      17.193     -12.536
  C       -9.005      16.978     -11.352
  O       -8.535      15.891     -11.036
  C       -8.936      18.136     -10.445
  C       -9.498      19.286     -10.823
  O       -9.396      22.191      -7.269
  O      -11.505      23.577      -6.832
  H      -12.341      20.838     -14.457
  H       -9.029      23.096      -7.283
  H       -9.700      16.415     -13.172
  H       -8.433      18.000      -9.497
  H       -9.471      20.146     -10.163
  H      -10.380      20.960     -13.429
  H      -12.671      19.499     -12.571
  H      -12.657      20.547     -10.408
  H      -11.959      23.167     -11.835
  H      -10.761      23.634      -9.697
  H      -12.510      23.466      -9.456
  P      -15.210      20.983     -10.499
  C      -16.242      18.598     -10.767
  O      -15.497      19.651     -11.340
  O      -16.474      21.929     -10.768
  O      -14.863      20.799      -9.060
  H      -16.439      22.347     -11.644
  H      -17.032      18.977     -10.114
  H      -15.574      17.952     -10.193
  H      -16.697      18.013     -11.570
  H      -12.968      19.971      -5.518
  H      -13.322      20.679      -7.076
  H      -13.223      21.694      -5.658

 3  4  5  6  7  8  9  10  11  12  13  23  28  29  30  31  32 0
 6-311+G(2d,p)
 ****
 33  34 0
 6-311+G(2d,p)
 ****
 1  2  14  15  16  17  18  19  20  21  22  24  25  26 0
 3-21G
 ****
 27  35  36  37  38  39  40  41  42  43  44  45 0
 3-21G
 ****


