%nproc=1
%NoSave
%Mem=1900MB
#P OB98/GEN NMR

erre ene a

0 1
  C      -68.912     119.455     -23.235
  O      -67.807     120.327     -23.131
  H      -68.562     118.430     -23.096
  H      -69.358     119.542     -24.231
  H      -69.664     119.675     -22.475
  P      -68.076     121.892     -22.938
  C      -68.887     122.109     -20.498
  O      -67.796     122.235     -21.396
  C      -68.426     122.253     -19.043
  O      -67.418     121.255     -18.753
  C      -67.774     123.621     -18.823
  O      -67.917     124.075     -17.481
  C      -66.305     123.342     -19.101
  O      -65.433     124.299     -18.506
  C      -66.165     121.930     -18.536
  N      -61.164     120.965     -18.650
  C      -61.850     121.936     -17.949
  N      -61.103     122.774     -17.196
  N      -63.148     122.082     -17.996
  C      -63.758     121.221     -18.847
  C      -63.182     120.233     -19.613
  C      -61.750     120.056     -19.522
  O      -61.086     119.224     -20.134
  N      -64.121     119.574     -20.367
  C      -65.259     120.165     -20.065
  N      -65.092     121.163     -19.135
  O      -69.671     122.019     -23.037
  O      -67.393     122.794     -23.921
  H      -64.518     124.021     -18.698
  H      -69.923     122.915     -23.321
  H      -60.165     120.886     -18.566
  H      -66.225     119.909     -20.482
  H      -65.982     121.962     -17.454
  H      -66.145     123.387     -20.182
  H      -60.098     122.812     -17.268
  H      -68.172     124.378     -19.499
  H      -61.545     123.655     -16.919
  H      -69.262     122.069     -18.360
  H      -69.322     121.116     -20.655
  H      -69.659     122.846     -20.732
  P      -68.808     125.384     -17.232
  C      -70.961     123.950     -16.798
  O      -70.072     124.954     -16.345
  O      -69.426     125.696     -18.673
  O      -68.038     126.539     -16.688
  H      -68.977     126.463     -19.073
  H      -71.735     123.805     -16.073
  H      -70.425     123.034     -16.935
  H      -71.395     124.252     -17.728

 6  7  8  9  10  11  12  13  14  15  26  29  33  34 0
 6-311+G(2d,p)
 ****
 36  38  39  40  41 0
 6-311+G(2d,p)
 ****
 1  2  3  4  5  16  17  18  19  20  21  22  23  24  25 0
 3-21G
 ****
 27  28  30  31  32  35  37  42  43  44  45  46  47 0
 3-21G
 ****
 48  49 0
 3-21G
 ****


