%nproc=1
%NoSave
%Mem=1900MB
#P OB98/GEN NMR

erre ene a

0 1
  C      328.319      79.910     107.217
  O      329.622      79.354     107.241
  P      330.254      78.838     105.863
  C      329.140      76.531     106.277
  O      330.321      77.236     105.920
  C      329.410      75.026     106.373
  O      328.190      74.333     106.739
  C      329.907      74.409     105.060
  O      330.824      73.343     105.353
  C      328.661      73.781     104.474
  O      328.981      72.731     103.560
  C      327.946      73.321     105.742
  N      324.423      70.323     103.703
  C      325.758      70.067     103.949
  N      326.233      68.879     103.512
  N      326.550      70.894     104.572
  C      325.940      72.045     104.946
  C      324.621      72.406     104.773
  C      323.758      71.486     104.071
  O      322.576      71.666     103.797
  N      324.365      73.637     105.320
  C      325.531      74.043     105.786
  N      326.524      73.128     105.550
  O      331.788      79.283     105.983
  O      329.624      79.411     104.638
  H      329.560      72.106     104.041
  H      331.956      80.053     105.412
  H      323.852      69.656     103.207
  H      325.711      74.991     106.273
  H      328.364      72.379     106.119
  H      328.076      74.537     103.933
  H      325.687      68.227     102.966
  H      330.379      75.120     104.373
  H      327.218      68.687     103.638
  H      330.133      74.854     107.180
  H      328.375      76.707     105.519
  H      328.766      76.905     107.237
  P      332.246      73.415     104.603
  C      331.551      72.952     102.138
  O      332.117      72.450     103.333
  O      333.220      72.618     105.592
  O      332.724      74.800     104.328
  H      334.140      72.918     105.471
  H      332.309      72.925     101.350
  H      331.187      73.979     102.248
  H      330.716      72.312     101.845
  H      328.039      80.206     108.207
  H      327.626      79.180     106.854
  H      328.308      80.764     106.573

 3  4  5  6  7  8  9  10  11  12  23  26  30  31 0
 6-311+G(2d,p)
 ****
 33  35  36  37  38 0
 6-311+G(2d,p)
 ****
 1  2  13  14  15  16  17  18  19  20  21  22  24  25 0
 3-21G
 ****
 27  28  29  32  34  39  40  41  42  43  44  45  46  47  48  49 0
 3-21G
 ****


