%nproc=1
%NoSave
%Mem=1900MB
#P OB98/GEN NMR

erre ene a

0 1
  C     -586.285      35.698    -118.945
  O     -587.635      36.106    -118.709
  P     -587.970      37.648    -119.012
  C     -586.982      38.563    -116.773
  O     -586.909      38.564    -118.211
  C     -585.755      39.244    -116.155
  O     -585.803      40.658    -116.400
  C     -585.629      39.046    -114.626
  O     -584.234      38.905    -114.293
  C     -586.098      40.387    -114.070
  O     -585.590      40.619    -112.755
  C     -585.559      41.316    -115.150
  N     -585.201      46.118    -113.536
  C     -584.286      45.078    -113.452
  N     -583.116      45.374    -112.838
  N     -584.501      43.887    -113.936
  C     -585.699      43.763    -114.553
  C     -586.697      44.703    -114.696
  C     -586.463      46.017    -114.112
  O     -587.275      46.954    -114.103
  N     -587.779      44.187    -115.380
  C     -587.453      42.941    -115.631
  N     -586.209      42.633    -115.144
  O     -589.350      37.890    -118.229
  O     -588.112      37.969    -120.467
  H     -585.627      41.579    -112.596
  H     -590.035      38.216    -118.848
  H     -584.992      47.016    -113.123
  H     -588.070      42.220    -116.137
  H     -584.485      41.470    -115.048
  H     -587.190      40.398    -114.022
  H     -582.854      46.280    -112.498
  H     -586.200      38.206    -114.220
  H     -582.405      44.648    -112.823
  H     -584.857      38.858    -116.664
  H     -587.050      37.518    -116.408
  H     -587.894      39.075    -116.470
  P     -583.807      37.519    -113.599
  C     -583.863      38.328    -111.120
  O     -584.451      37.535    -112.137
  O     -582.230      37.703    -113.326
  O     -584.088      36.305    -114.440
  H     -581.789      36.847    -113.318
  H     -583.093      38.999    -111.535
  H     -583.382      37.673    -110.403
  H     -584.622      38.925    -110.639
  H     -586.180      34.659    -118.711
  H     -585.626      36.271    -118.327
  H     -586.039      35.858    -119.974

 3  4  5  6  7  8  9  10  11  12  23  26  30  31  33  0
 6-311+G(2d,p)
 ****
 35  36  37  38 0
 6-311+G(2d,p)
 ****
 1  2  13  14  15  16  17  18  19  20  21  22  24  25  27  28  29 0
 3-21G
 ****
 32  34  39  40  41  42  43  44  45  46  47  48  49 0
 3-21G
 ****


