%nproc=1
%NoSave
%Mem=1900MB
#P OB98/GEN NMR

erre ene a

0 1
  C     -388.377     225.885     477.262
  O     -387.467     224.807     477.380
  P     -388.005     223.324     477.655
  C     -386.460     222.285     475.884
  O     -387.810     222.465     476.317
  C     -386.436     221.624     474.504
  O     -387.075     222.486     473.524
  C     -385.036     221.363     473.968
  O     -384.450     220.234     474.595
  C     -385.316     221.190     472.477
  O     -385.779     219.858     472.196
  C     -386.448     222.208     472.251
  N     -385.062     224.459     467.884
  C     -385.328     223.179     468.186
  N     -385.656     222.642     469.384
  C     -385.669     223.593     470.330
  C     -385.377     224.950     470.181
  C     -385.084     225.384     468.882
  N     -384.874     226.713     468.543
  N     -385.471     225.599     471.398
  C     -385.791     224.664     472.265
  N     -385.984     223.450     471.663
  O     -389.372     223.248     478.259
  O     -386.916     222.700     478.647
  H     -385.925     219.811     471.231
  H     -387.340     222.458     479.493
  H     -385.287     222.472     467.355
  H     -385.909     224.808     473.334
  H     -387.229     221.806     471.594
  H     -384.428     221.370     471.863
  H     -384.403     222.253     474.118
  H     -387.010     220.689     474.562
  H     -385.950     221.641     476.608
  H     -384.820     226.922     467.559
  H     -385.195     227.419     469.188
  H     -385.962     223.252     475.843
  P     -383.318     220.432     475.705
  C     -384.326     219.191     477.717
  O     -384.066     220.445     477.126
  O     -382.373     221.564     475.462
  O     -382.558     219.022     475.719
  H     -381.611     219.166     475.934
  H     -385.200     218.737     477.232
  H     -384.536     219.330     478.775
  H     -383.460     218.519     477.607
  H     -387.836     226.790     477.081
  H     -388.937     225.980     478.169
  H     -389.046     225.700     476.447

 3  4  5  6  7  8  9  10  11  12  22  25  29  30  31  32 0
 6-311+G(2d,p)
 ****
 33  36  37 0
 6-311+G(2d,p)
 ****
 1  2  13  14  15  16  17  18  19  20  21  23  24  26 0
 3-21G
 ****
 27  28  34  35  38  39  40  41  42  43  44  45  46  47  48 0
 3-21G
 ****


