%nproc=1
%NoSave
%Mem=1900MB
#P OB98/GEN NMR

erre ene a

0 1
  C      141.712     -92.968     137.521
  O      140.726     -91.975     137.723
  H      141.731     -93.628     138.392
  H      142.698     -92.508     137.407
  H      141.475     -93.560     136.633
  P      140.618     -90.841     136.591
  C      141.853     -88.976     137.934
  O      141.899     -89.911     136.868
  C      142.420     -87.638     137.470
  O      143.856     -87.713     137.334
  C      141.907     -87.183     136.109
  O      140.606     -86.619     136.167
  C      142.957     -86.146     135.754
  O      142.719     -84.942     136.504
  C      144.247     -86.852     136.231
  N      144.899     -87.632     135.178
  C      145.995     -87.036     134.541
  O      146.367     -85.908     134.862
  N      146.627     -87.721     133.532
  C      146.211     -88.901     133.191
  N      146.864     -89.528     132.175
  C      145.072     -89.573     133.845
  C      144.471     -88.890     134.816
  O      139.407     -89.922     137.094
  O      140.481     -91.325     135.187
  H      143.356     -84.278     136.183
  H      139.340     -89.117     136.526
  H      144.755     -90.553     133.519
  H      143.624     -89.319     135.340
  H      144.968     -86.126     136.625
  H      142.951     -85.874     134.696
  H      141.949     -87.992     135.371
  H      142.205     -86.891     138.247
  H      147.600     -89.017     131.705
  H      142.446     -89.370     138.765
  H      146.503     -90.360     131.725
  H      140.819     -88.835     138.267
  P      139.710     -86.675     134.836
  C      140.392     -84.250     134.206
  O      140.331     -85.612     133.808
  O      138.342     -85.986     135.294
  O      139.488     -88.048     134.281
  H      137.570     -86.434     134.898
  H      140.827     -83.668     133.421
  H      140.991     -84.163     135.088
  H      139.404     -83.893     134.409

 6  7  8  9  10  11  12  13  14  15  16  26  30  31  32  33  35 0
 6-311+G(2d,p)
 ****
 37  38 0
 6-311+G(2d,p)
 ****
 1  2  3  4  5  17  18  19  20  21  22  23  24  25 0
 3-21G
 ****
 27  28  29  34  36  39  40  41  42  43  44  45  46 0
 3-21G
 ****


