%nproc=1
%NoSave
%Mem=1900MB
#P OB98/GEN NMR

erre ene a

0 1
  C       75.883     284.720     -77.855
  O       76.889     285.679     -78.118
  H       75.132     285.170     -77.201
  H       76.316     283.851     -77.353
  H       75.401     284.412     -78.786
  P       78.082     285.213     -79.081
  C       80.014     286.427     -77.819
  O       79.203     286.356     -78.982
  C       80.729     287.782     -77.748
  O       81.598     287.912     -78.912
  C       79.778     288.989     -77.769
  O       80.412     290.063     -77.054
  C       79.733     289.322     -79.251
  O       79.175     290.597     -79.468
  C       81.206     289.121     -79.599
  N       82.283     291.662     -83.902
  C       82.160     292.073     -82.622
  N       81.885     291.337     -81.528
  C       81.750     290.039     -81.849
  C       81.856     289.469     -83.106
  C       82.131     290.344     -84.172
  N       82.247     289.928     -85.478
  N       81.648     288.104     -83.042
  C       81.423     287.856     -81.767
  N       81.467     288.995     -81.012
  O       77.471     285.404     -80.546
  O       78.582     283.824     -78.859
  H       79.770     291.300     -79.131
  H       77.103     284.559     -80.865
  H       82.301     293.140     -82.455
  H       81.218     286.881     -81.343
  H       81.829     289.938     -79.217
  H       79.103     288.607     -79.792
  H       78.802     288.782     -77.324
  H       81.378     287.799     -76.865
  H       80.752     285.619     -77.861
  H       79.389     286.299     -76.931
  H       82.433     290.623     -86.185
  H       82.121     288.951     -85.695
  P       79.899     290.429     -75.574
  C       80.705     292.911     -75.738
  O       80.743     291.680     -75.032
  O       80.505     289.221     -74.705
  O       78.419     290.511     -75.402
  H       79.940     289.067     -73.925
  H       81.322     293.628     -75.238
  H       79.698     293.270     -75.774
  H       81.067     292.762     -76.734

 6  7  8  9  10  11  12  13  14  15  25  28  32  33  34  35 0
 6-311+G(2d,p)
 ****
 36  37  40 0
 6-311+G(2d,p)
 ****
 1  2  3  4  5  16  17  18  19  20  21  22  23  24 0
 3-21G
 ****
 26  27  29  30  31  38  39 41  42  43  44  45  46  47  48 0
 3-21G
 ****


