%nproc=1
%NoSave
%Mem=1900MB
#P OB98/GEN NMR

erre ene a

0 1
  C      101.675     332.612    -113.159
  O      102.741     331.676    -113.159
  P      103.807     331.784    -111.960
  C      105.360     333.339    -113.372
  O      104.600     333.159    -112.186
  C      105.717     334.819    -113.533
  O      104.521     335.614    -113.654
  C      106.502     335.401    -112.363
  O      107.875     335.082    -112.479
  C      106.198     336.890    -112.508
  O      107.044     337.489    -113.509
  C      104.732     336.876    -112.959
  N      102.738     340.075    -109.587
  C      103.820     340.236    -110.433
  N      104.427     341.442    -110.407
  N      104.261     339.302    -111.235
  C      103.564     338.145    -111.147
  C      102.487     337.858    -110.336
  C      101.978     338.916    -109.496
  O      100.968     338.857    -108.802
  N      102.060     336.566    -110.506
  C      102.858     336.085    -111.440
  N      103.773     337.007    -111.876
  O      104.872     330.651    -112.322
  O      103.236     331.624    -110.586
  H      107.956     337.542    -113.166
  H      104.702     329.838    -111.807
  H      102.435     340.836    -109.007
  H      102.798     335.088    -111.846
  H      104.513     337.676    -113.676
  H      106.379     337.438    -111.579
  H      104.159     342.197    -109.802
  H      106.098     335.034    -111.411
  H      105.225     341.576    -111.022
  H      106.284     334.926    -114.468
  H      104.765     333.018    -114.233
  H      106.264     332.728    -113.318
  P      108.736     335.025    -111.126
  C      109.976     337.259    -111.598
  O      109.113     336.534    -110.743
  O      110.128     334.390    -111.604
  O      108.121     334.219    -110.033
  H      110.485     333.814    -110.903
  H      109.729     338.320    -111.527
  H      109.880     336.939    -112.638
  H      111.009     337.114    -111.273
  H      101.043     332.432    -114.003
  H      102.072     333.604    -113.215
  H      101.107     332.506    -112.259

 3  4  5  6  7  8  9  10  11  12  23  26  30  31 0
 6-311+G(2d,p)
 ****
 33  35  36  37  38 0
 6-311+G(2d,p)
 ****
 1  2  13  14  15  16  17  18  19  20  21  22  24  25 0
 3-21G
 ****
 27  28  29  32  34  39  40  41  42  43  44  45  46  47  48  49 0
 3-21G
 ****


