%nproc=1
%NoSave
%Mem=1900MB
#P OB98/GEN NMR

erre ene a

0 1
  C      -99.389     341.897     907.205
  O      -99.662     342.220     905.848
  P      -98.997     343.488     905.129
  C      -96.846     342.379     904.138
  O      -98.143     342.937     903.866
  C      -96.334     341.500     902.987
  O      -97.257     340.418     902.733
  C      -96.267     342.323     901.685
  O      -95.141     343.126     901.413
  C      -96.627     341.316     900.573
  O      -95.473     340.801     899.928
  C      -97.366     340.214     901.328
  N     -100.720     339.171     897.642
  C      -99.364     338.885     897.697
  N      -98.820     338.443     896.549
  N      -98.637     339.049     898.764
  C      -99.317     339.603     899.803
  C     -100.652     339.918     899.897
  C     -101.451     339.686     898.706
  O     -102.646     340.015     898.588
  N     -100.977     340.515     901.077
  C      -99.818     340.609     901.715
  N      -98.772     340.102     900.976
  O      -98.401     344.534     906.005
  O     -100.283     344.138     904.394
  H      -95.064     341.506     899.382
  H     -100.168     345.109     904.390
  H     -101.204     339.100     896.774
  H      -99.672     341.060     902.687
  H      -96.915     339.236     901.121
  H      -97.209     341.806     899.798
  H      -99.323     338.445     895.662
  H      -97.107     343.021     901.707
  H      -97.789     338.378     896.510
  H      -95.382     341.012     903.250
  H      -96.939     341.795     905.068
  H      -96.136     343.181     904.319
  P      -95.147     344.670     900.958
  C      -94.868     345.861     903.226
  O      -94.253     345.497     901.985
  O      -96.658     345.162     901.317
  O      -94.857     344.910     899.513
  H      -96.880     345.951     900.784
  H      -94.285     346.662     903.685
  H      -94.889     344.993     903.879
  H      -95.887     346.211     903.053
  H      -99.934     341.018     907.479
  H      -99.686     342.711     907.832
  H      -98.341     341.718     907.325

 3  4  5  6  7  8  9  10  11  12  23  26  30  31 0
 6-311+G(2d,p)
 ****
 33  35  36  37  38 0
 6-311+G(2d,p)
 ****
 1  2  13  14  15  16  17  18  19  20  21  22  24  25 0
 3-21G
 ****
 27  28  29  32  34  39  40  41  42  43  44  45  46  47  48  49 0
 3-21G
 ****


