%nproc=1
%NoSave
%Mem=1900MB
#P OB98/GEN NMR

erre ene a

0 1
  C     -204.657      34.069      -9.287
  O     -205.845      33.331      -9.078
  H     -204.863      35.126      -9.104
  H     -204.315      33.949     -10.319
  H     -203.879      33.734      -8.596
  P     -205.759      31.753      -9.360
  C     -205.010      31.484      -6.893
  O     -204.766      31.151      -8.252
  C     -203.812      31.107      -6.027
  O     -203.879      31.768      -4.745
  C     -203.686      29.613      -5.745
  O     -203.035      28.949      -6.814
  C     -202.859      29.623      -4.468
  O     -201.458      29.818      -4.760
  C     -203.432      30.837      -3.723
  N     -204.769      30.515       1.134
  C     -203.540      30.775       0.564
  N     -202.502      30.949       1.413
  N     -203.337      30.847      -0.725
  C     -204.450      30.595      -1.454
  C     -205.723      30.323      -1.009
  C     -205.943      30.301       0.422
  O     -207.023      30.158       0.987
  N     -206.588      30.144      -2.058
  C     -205.832      30.272      -3.131
  N     -204.525      30.541      -2.817
  O     -204.902      31.661     -10.710
  O     -207.069      31.056      -9.505
  H     -201.367      30.516      -5.431
  H     -205.261      30.939     -11.260
  H     -204.872      30.502       2.133
  H     -206.183      30.190      -4.151
  H     -202.666      31.351      -3.131
  H     -202.932      28.675      -3.934
  H     -202.533      30.622       2.368
  H     -204.666      29.167      -5.539
  H     -201.590      31.065       0.991
  H     -202.911      31.480      -6.532
  H     -205.894      30.939      -6.549
  H     -205.199      32.559      -6.814
  P     -202.808      27.367      -6.696
  C     -205.161      27.146      -7.772
  O     -204.241      26.652      -6.810
  O     -202.415      27.178      -5.155
  O     -201.747      26.822      -7.589
  H     -201.458      27.008      -5.076
  H     -206.064      26.573      -7.729
  H     -204.733      27.065      -8.749
  H     -205.380      28.172      -7.562

 6  7  8  9  10  11  12  13  14  15  26  29  33  34 0
 6-311+G(2d,p)
 ****
 36  38  39  40  41 0
 6-311+G(2d,p)
 ****
 1  2  3  4  5  16  17  18  19  20  21  22  23  24  25 0
 3-21G
 ****
 27  28  30  31  32  35  37  42  43  44  45  46  47 0
 3-21G
 ****
 48  49 0
 3-21G
 ****


