%nproc=1
%NoSave
%Mem=1900MB
#P OB98/GEN NMR

erre ene a

0 1
  C      629.446     691.030     209.014
  O      629.603     691.833     207.835
  P      631.079     692.210     207.318
  C      630.416     694.393     206.072
  O      630.952     693.067     205.964
  C      630.061     694.937     204.673
  O      631.245     695.027     203.838
  C      629.110     694.019     203.916
  O      627.774     693.955     204.387
  C      629.306     694.484     202.483
  O      628.520     695.634     202.182
  C      630.813     694.826     202.474
  N      631.631     693.805     201.798
  C      631.251     693.468     200.507
  O      630.270     693.933     199.951
  N      632.038     692.516     199.894
  C      633.099     691.880     200.446
  O      633.764     691.034     199.844
  C      633.446     692.275     201.817
  C      632.703     693.203     202.430
  O      632.048     691.083     207.269
  O      631.543     693.323     208.386
  H      628.662     695.847     201.229
  H      632.484     693.161     208.585
  H      631.781     692.267     198.942
  H      634.291     691.775     202.291
  H      632.927     693.504     203.440
  H      630.990     695.777     201.949
  H      629.009     693.707     201.766
  H      629.500     692.996     203.962
  H      629.651     695.948     204.793
  H      631.139     695.043     206.555
  H      629.527     694.363     206.722
  P      627.345     693.036     205.639
  C      625.467     691.570     204.596
  O      625.802     692.652     205.467
  O      627.799     693.477     206.994
  O      628.070     691.649     205.276
  H      628.338     691.203     206.110
  H      624.373     691.464     204.587
  H      625.919     690.648     204.964
  H      625.798     691.779     203.584
  H      628.404     690.880     209.207
  H      629.896     691.528     209.847
  H      629.921     690.083     208.866

 3  4  5  6  7  8  9  10  11  12  13  23  28  29  30  31  32 0
 6-311+G(2d,p)
 ****
 33  34 0
 6-311+G(2d,p)
 ****
 1  2  14  15  16  17  18  19  20  21  22  24  25  26  27 0
 3-21G
 ****
 35  36  37  38  39  40  41  42  43  44  45 0
 3-21G
 ****


