%nproc=1
%NoSave
%Mem=1900MB
#P OB98/GEN NMR

erre ene a

0 1
  C     -610.081     270.806     369.266
  O     -610.475     270.800     370.640
  P     -611.362     269.566     371.150
  C     -610.262     270.142     373.459
  O     -611.410     269.702     372.747
  C     -610.504     271.520     374.070
  O     -610.486     272.541     373.041
  C     -611.859     271.660     374.755
  O     -611.880     270.996     376.003
  C     -611.981     273.177     374.829
  O     -611.220     273.687     375.941
  C     -611.326     273.618     373.507
  N     -612.295     274.014     372.486
  C     -613.237     274.966     372.885
  O     -613.287     275.435     374.024
  N     -614.144     275.340     371.933
  C     -614.215     274.855     370.662
  O     -615.043     275.242     369.838
  C     -613.231     273.817     370.315
  C     -612.325     273.456     371.228
  O     -610.373     268.343     370.885
  O     -612.687     269.478     370.468
  H     -609.436     268.568     371.026
  H     -611.609     273.293     376.747
  H     -614.825     276.043     372.193
  H     -613.273     273.387     369.319
  H     -611.590     272.687     371.001
  H     -610.651     274.471     373.681
  H     -613.018     273.511     374.959
  H     -612.650     271.265     374.109
  H     -609.697     271.732     374.777
  H     -609.399     270.198     372.782
  H     -610.022     269.407     374.234
  P     -613.035     269.899     376.218
  C     -611.347     268.701     377.823
  O     -612.671     269.125     377.578
  O     -612.689     268.854     375.062
  O     -614.414     270.465     376.153
  H     -611.745     268.647     375.001
  H     -611.226     268.523     378.898
  H     -610.623     269.466     377.519
  H     -611.148     267.770     377.284
  H     -609.498     271.681     369.066
  H     -610.952     270.808     368.645
  H     -609.498     269.933     369.058

 3  4  5  6  7  8  9  10  11  12  13  24  28  29  30  31  32 0
 6-311+G(2d,p)
 ****
 33  34 0
 6-311+G(2d,p)
 ****
 1  2  14  15  16  17  18  19  20  21  22  23  25  26  27 0
 3-21G
 ****
 35  36  37  38  39  40  41  42  43  44  45 0
 3-21G
 ****


