%nproc=1
%NoSave
%Mem=1900MB
#P OB98/GEN NMR

erre ene a

0 1
  C      170.038     955.788     336.597
  O      168.633     955.985     336.506
  H      170.339     955.906     337.637
  H      170.564     956.539     335.995
  H      170.304     954.782     336.259
  P      167.942     955.934     335.058
  C      167.990     953.685     333.793
  O      167.411     954.435     334.853
  C      166.933     952.839     333.091
  O      166.175     952.135     334.111
  C      165.945     953.694     332.267
  O      165.816     953.258     330.917
  C      164.678     953.700     333.130
  O      163.480     953.900     332.421
  C      164.763     952.366     333.879
  N      164.034     952.344     335.151
  C      162.680     952.014     335.099
  O      162.066     951.698     334.071
  N      162.031     952.020     336.302
  C      162.563     952.348     337.508
  O      161.920     952.345     338.552
  C      163.979     952.720     337.496
  C      164.649     952.709     336.331
  O      168.765     956.471     333.926
  O      166.600     956.779     335.246
  H      163.156     953.019     332.126
  H      166.706     957.668     334.862
  H      161.054     951.766     336.276
  H      164.437     952.992     338.439
  H      165.706     952.980     336.286
  H      164.391     951.553     333.271
  H      164.765     954.522     333.850
  H      166.316     954.724     332.168
  H      167.427     952.088     332.469
  H      168.766     953.039     334.233
  H      168.466     954.368     333.069
  P      166.516     953.961     329.664
  C      169.002     954.774     329.775
  O      168.088     953.693     329.752
  O      166.090     955.365     329.399
  O      166.041     953.063     328.412
  H      165.974     953.670     327.640
  H      170.001     954.395     329.836
  H      168.802     955.392     330.626
  H      168.893     955.352     328.881

 6  7  8  9  10  11  12  13  14  15  16  26  31  32  33  34  35 0
 6-311+G(2d,p)
 ****
 36  37 0
 6-311+G(2d,p)
 ****
 1  2  3  4  5  17  18  19  20  21  22  23  24  25 0
 3-21G
 ****
 27  28  29  30  38  39  40  41  42  43  44  45 0
 3-21G
 ****


