%nproc=1
%NoSave
%Mem=1900MB
#P OB98/GEN NMR

erre ene a

0 1
  C      125.478      15.582    -162.259
  O      125.140      14.274    -161.788
  P      125.188      14.069    -160.195
  C      127.658      13.426    -159.737
  O      126.671      14.445    -159.703
  C      128.769      13.702    -158.717
  O      129.483      14.929    -159.054
  C      128.256      13.860    -157.276
  O      129.263      13.308    -156.418
  C      128.190      15.371    -157.128
  O      128.100      15.799    -155.778
  C      129.461      15.761    -157.873
  N      130.673      20.422    -156.188
  C      130.708      19.207    -155.594
  N      130.364      18.009    -156.111
  C      129.954      18.148    -157.383
  C      129.859      19.316    -158.121
  C      130.245      20.501    -157.470
  N      130.190      21.743    -158.057
  N      129.367      19.054    -159.393
  C      129.106      17.760    -159.380
  N      129.519      17.161    -158.224
  O      125.117      12.480    -160.022
  O      124.090      14.772    -159.469
  H      127.186      15.677    -155.450
  H      124.209      12.202    -159.801
  H      131.059      19.200    -154.564
  H      128.622      17.211    -160.178
  H      130.367      15.537    -157.292
  H      127.305      15.749    -157.651
  H      127.306      13.353    -157.088
  H      129.493      12.879    -158.766
  H      128.097      13.361    -160.734
  H      130.485      22.537    -157.508
  H      129.866      21.848    -159.007
  H      127.179      12.459    -159.547
  P      129.213      11.739    -156.076
  C      128.262      12.471    -153.808
  O      128.104      11.616    -154.922
  O      130.563      11.581    -155.227
  O      129.109      10.812    -157.240
  H      130.622      12.257    -154.529
  H      127.405      12.343    -153.143
  H      128.307      13.513    -154.133
  H      129.175      12.208    -153.263
  H      125.413      15.604    -163.327
  H      126.476      15.823    -161.957
  H      124.798      16.297    -161.845

 3  4  5  6  7  8  9  10  11  12  22  25  29  30  31  32 0
 6-311+G(2d,p)
 ****
 33  36  37 0
 6-311+G(2d,p)
 ****
 1  2  13  14  15  16  17  18  19  20  21  23  24  26 0
 3-21G
 ****
 27  28  34  35  38  39  40  41  42  43  44  45  46  47  48 0
 3-21G
 ****


