%nproc=1
%NoSave
%Mem=1900MB
#P OB98/GEN NMR

erre ene a

0 1
  C      645.610     116.361      51.138
  O      644.481     117.171      51.381
  H      645.291     115.465      50.597
  H      646.072     116.053      52.080
  H      646.339     116.895      50.522
  P      644.677     118.535      52.203
  C      643.956     117.380      54.397
  O      643.703     118.435      53.474
  C      643.045     117.519      55.616
  O      643.207     116.392      56.499
  C      643.299     118.767      56.457
  O      642.668     119.902      55.882
  C      642.661     118.349      57.771
  O      641.232     118.456      57.674
  C      643.076     116.868      57.863
  N      645.401     114.050      61.395
  C      644.065     114.099      61.043
  N      643.224     113.309      61.745
  N      643.597     114.867      60.086
  C      644.537     115.649      59.517
  C      645.885     115.703      59.796
  C      646.401     114.802      60.805
  O      647.585     114.706      61.136
  N      646.506     116.684      59.073
  C      645.547     117.194      58.318
  N      644.326     116.608      58.557
  O      644.521     119.800      51.416
  O      646.136     118.399      52.846
  H      640.942     117.830      56.990
  H      646.815     118.792      52.264
  H      645.701     113.445      62.146
  H      645.686     117.983      57.594
  H      642.309     116.255      58.358
  H      642.980     118.974      58.614
  H      643.500     112.819      62.579
  H      644.372     118.932      56.612
  H      642.233     113.377      61.532
  H      641.998     117.496      55.262
  H      645.003     117.450      54.697
  H      643.785     116.409      53.922
  P      643.465     121.278      55.642
  C      643.181     121.672      58.187
  O      643.067     122.219      56.888
  O      643.267     121.892      54.307
  O      644.986     120.918      55.984
  H      645.467     120.523      55.210
  H      642.886     122.404      58.909
  H      644.196     121.384      58.365
  H      642.547     120.814      58.269

 6  7  8  9  10  11  12  13  14  15  26  29  33  34 0
 6-311+G(2d,p)
 ****
 36  38  39  40  41 0
 6-311+G(2d,p)
 ****
 1  2  3  4  5  16  17  18  19  20  21  22  23  24  25 0
 3-21G
 ****
 27  28  30  31  32  35  37  42  43  44  45  46  47 0
 3-21G
 ****
 48  49 0
 3-21G
 ****


