%nproc=1
%NoSave
%Mem=1900MB
#P OB98/GEN NMR

erre ene a

0 1
  C     -318.118     258.767     226.330
  O     -316.966     259.542     226.058
  H     -318.925     259.434     226.641
  H     -317.912     258.061     227.140
  H     -318.429     258.226     225.432
  P     -315.645     258.732     225.643
  C     -313.278     258.726     226.701
  O     -314.681     258.751     226.926
  C     -312.525     259.120     227.969
  O     -312.846     260.476     228.352
  C     -312.825     258.238     229.178
  O     -312.035     257.064     229.155
  C     -312.458     259.175     230.322
  O     -311.030     259.203     230.532
  C     -312.958     260.529     229.802
  N     -315.812     262.778     233.307
  C     -314.453     262.548     233.278
  N     -313.746     262.956     234.360
  N     -313.834     261.963     232.287
  C     -314.670     261.557     231.301
  C     -316.035     261.725     231.212
  C     -316.695     262.424     232.293
  O     -317.885     262.732     232.337
  N     -316.523     261.194     230.045
  C     -315.463     260.678     229.452
  N     -314.317     260.871     230.178
  O     -314.910     259.717     224.615
  O     -315.880     257.394     225.030
  H     -310.595     259.543     229.733
  H     -314.505     259.184     223.906
  H     -316.230     263.261     234.082
  H     -315.476     260.169     228.497
  H     -312.323     261.356     230.141
  H     -312.900     258.846     231.264
  H     -314.188     263.136     235.247
  H     -313.893     257.997     229.233
  H     -312.763     262.717     234.368
  H     -311.453     259.099     227.735
  H     -313.035     259.431     225.899
  H     -312.982     257.719     226.393
  P     -312.659     255.718     229.761
  C     -312.144     254.228     231.825
  O     -312.066     255.521     231.243
  O     -311.933     254.570     228.912
  O     -314.142     255.612     229.644
  H     -312.556     254.199     228.258
  H     -311.713     254.251     232.804
  H     -311.609     253.530     231.216
  H     -313.169     253.929     231.893

 6  7  8  9  10  11  12  13  14  15  26  29  33  34 0
 6-311+G(2d,p)
 ****
 36  38  39  40  41 0
 6-311+G(2d,p)
 ****
 1  2  3  4  5  16  17  18  19  20  21  22  23  24  25 0
 3-21G
 ****
 27  28  30  31  32  35  37  42  43  44  45  46  47 0
 3-21G
 ****
 48  49 0
 3-21G
 ****


