%nproc=1
%NoSave
%Mem=1900MB
#P OB98/GEN NMR

erre ene a

0 1
  C      426.749      67.429    -401.936
  O      427.111      66.406    -402.830
  H      425.658      67.427    -401.824
  H      427.062      68.400    -402.335
  H      427.200      67.276    -400.946
  P      428.652      65.952    -402.899
  C      428.575      65.697    -405.472
  O      428.820      65.064    -404.231
  C      427.750      64.806    -406.406
  O      428.348      63.489    -406.455
  C      426.329      64.632    -405.857
  O      425.374      64.401    -406.896
  C      426.442      63.370    -405.009
  O      425.189      62.726    -404.780
  C      427.439      62.557    -405.832
  N      427.343      58.223    -403.152
  C      426.295      58.930    -403.694
  N      425.057      58.435    -403.476
  N      426.451      60.034    -404.378
  C      427.742      60.457    -404.434
  C      428.856      59.858    -403.923
  C      428.679      58.614    -403.202
  O      429.572      57.938    -402.676
  N      429.993      60.588    -404.172
  C      429.563      61.631    -404.843
  N      428.190      61.596    -405.046
  O      428.771      64.856    -401.732
  O      429.660      67.045    -402.738
  H      424.598      63.380    -404.395
  H      429.697      64.791    -401.425
  H      427.176      57.361    -402.649
  H      430.180      62.436    -405.219
  H      426.918      61.996    -406.613
  H      426.831      63.665    -404.025
  H      424.875      57.680    -402.814
  H      426.014      65.491    -405.264
  H      424.270      59.074    -403.616
  H      427.763      65.198    -407.426
  H      429.555      65.918    -405.924
  H      428.071      66.654    -405.309
  P      424.601      65.677    -407.503
  C      422.140      64.784    -407.420
  O      423.271      65.151    -408.197
  O      425.550      66.135    -408.713
  O      424.407      66.783    -406.508
  H      426.037      66.942    -408.467
  H      421.353      64.459    -408.068
  H      421.809      65.628    -406.852
  H      422.407      63.989    -406.755

 6  7  8  9  10  11  12  13  14  15  26  29  33  34 0
 6-311+G(2d,p)
 ****
 36  38  39  40  41 0
 6-311+G(2d,p)
 ****
 1  2  3  4  5  16  17  18  19  20  21  22  23  24  25 0
 3-21G
 ****
 27  28  30  31  32  35  37  42  43  44  45  46  47 0
 3-21G
 ****
 48  49 0
 3-21G
 ****


