%nproc=1
%NoSave
%Mem=1900MB
#P OB98/GEN NMR

erre ene a

0 1
  C      -64.045    -114.801      93.538
  O      -64.337    -113.586      94.227
  P      -65.871    -113.214      94.503
  C      -65.462    -113.583      97.023
  O      -66.308    -113.851      95.910
  C      -65.993    -114.282      98.286
  O      -66.210    -115.688      97.988
  C      -65.043    -114.256      99.488
  O      -65.124    -113.154     100.389
  C      -65.508    -115.486     100.263
  O      -66.651    -115.149     101.073
  C      -65.926    -116.465      99.170
  N      -63.656    -120.733     100.844
  C      -64.650    -119.977     101.359
  N      -65.196    -118.854     100.851
  C      -64.624    -118.533      99.680
  C      -63.604    -119.209      99.031
  C      -63.109    -120.361      99.663
  N      -62.089    -121.125      99.145
  N      -63.272    -118.575      97.852
  C      -64.065    -117.524      97.802
  N      -64.910    -117.461      98.875
  O      -66.814    -113.451      93.371
  O      -65.788    -111.650      94.852
  H      -66.966    -115.984     101.467
  H      -66.569    -111.201      94.476
  H      -65.059    -120.317     102.307
  H      -64.063    -116.786      97.012
  H      -66.841    -117.011      99.427
  H      -64.740    -115.863     100.946
  H      -64.004    -114.391      99.167
  H      -66.958    -113.841      98.563
  H      -65.413    -112.505      97.194
  H      -61.762    -121.910      99.685
  H      -61.630    -120.830      98.296
  H      -64.456    -113.907      96.757
  P      -64.426    -111.752     100.057
  C      -66.748    -110.573      99.812
  O      -65.512    -110.916      99.226
  O      -63.090    -111.848      99.407
  O      -64.421    -111.021     101.480
  H      -65.301    -110.771     101.805
  H      -67.245    -109.836      99.176
  H      -66.602    -110.141     100.805
  H      -67.382    -111.461      99.882
  H      -62.985    -114.905      93.432
  H      -64.500    -114.780      92.570
  H      -64.431    -115.629      94.095

 3  4  5  6  7  8  9  10  11  12  22  25  29  30  31  32 0
 6-311+G(2d,p)
 ****
 33  36  37 0
 6-311+G(2d,p)
 ****
 1  2  13  14  15  16  17  18  19  20  21  23  24  26 0
 3-21G
 ****
 27  28  34  35  38  39  40  41  42  43  44  45  46  47  48 0
 3-21G
 ****


