%nproc=1
%NoSave
%Mem=1900MB
#P OB98/GEN NMR

erre ene a

0 1
  C     -113.218     -33.092     -83.494
  O     -112.217     -34.041     -83.111
  P     -111.359     -33.717     -81.794
  C     -112.817     -34.929     -79.984
  O     -111.645     -34.930     -80.783
  C     -112.463     -34.591     -78.536
  O     -113.607     -34.029     -77.848
  C     -112.038     -35.793     -77.704
  O     -110.726     -36.215     -78.036
  C     -112.198     -35.234     -76.294
  O     -111.059     -34.434     -75.944
  C     -113.446     -34.341     -76.444
  N     -114.651     -34.941     -75.886
  C     -115.134     -34.364     -74.717
  O     -114.581     -33.418     -74.158
  N     -116.269     -34.924     -74.199
  C     -116.935     -36.001     -74.707
  O     -117.956     -36.451     -74.202
  C     -116.352     -36.601     -75.914
  C     -115.252     -36.054     -76.444
  O     -112.182     -32.489     -81.183
  O     -109.925     -33.436     -82.085
  H     -113.143     -32.566     -81.328
  H     -111.353     -33.835     -75.228
  H     -116.645     -34.509     -73.358
  H     -116.840     -37.472     -76.332
  H     -114.806     -36.485     -77.334
  H     -113.284     -33.379     -75.939
  H     -112.289     -36.022     -75.542
  H     -112.745     -36.618     -77.857
  H     -111.665     -33.838     -78.549
  H     -113.293     -35.916     -80.016
  H     -113.526     -34.207     -80.396
  P     -110.529     -37.777     -78.358
  C     -110.938     -38.263     -80.894
  O     -110.040     -37.868     -79.883
  O     -112.049     -38.279     -78.406
  O     -109.672     -38.491     -77.364
  H     -112.629     -37.679     -78.899
  H     -110.546     -37.934     -81.862
  H     -111.929     -37.823     -80.748
  H     -111.020     -39.355     -80.903
  H     -113.710     -33.431     -84.382
  H     -112.758     -32.144     -83.681
  H     -113.935     -32.992     -82.706

 3  4  5  6  7  8  9  10  11  12  13  24  28  29  30  31  32 0
 6-311+G(2d,p)
 ****
 33  34 0
 6-311+G(2d,p)
 ****
 1  2  14  15  16  17  18  19  20  21  22  23  25  26  27 0
 3-21G
 ****
 35  36  37  38  39  40  41  42  43  44  45 0
 3-21G
 ****


