%nproc=1
%NoSave
%Mem=1900MB
#P OB98/GEN NMR

erre ene a

0 1
  C     -534.187     331.539    -403.399
  O     -535.252     331.399    -402.459
  P     -535.155     332.238    -401.093
  C     -533.977     331.883    -398.810
  O     -534.027     331.542    -400.182
  C     -532.719     331.331    -398.139
  O     -532.727     329.871    -398.229
  C     -531.400     331.806    -398.770
  O     -530.427     331.898    -397.724
  C     -531.021     330.657    -399.693
  O     -529.642     330.662    -400.019
  C     -531.491     329.475    -398.864
  N     -529.313     326.145    -402.087
  C     -528.815     327.214    -401.440
  N     -529.469     328.046    -400.589
  C     -530.744     327.689    -400.443
  C     -531.403     326.647    -401.072
  C     -530.641     325.838    -401.933
  N     -531.138     324.742    -402.591
  N     -532.736     326.611    -400.701
  C     -532.878     327.617    -399.854
  N     -531.698     328.287    -399.662
  O     -536.524     331.857    -400.350
  O     -535.024     333.722    -401.252
  H     -529.461     329.912    -400.633
  H     -537.120     332.635    -400.320
  H     -527.771     327.422    -401.611
  H     -533.810     327.905    -399.375
  H     -530.776     329.217    -398.065
  H     -531.597     330.735    -400.631
  H     -531.484     332.772    -399.301
  H     -532.744     331.589    -397.072
  H     -534.855     331.450    -398.309
  H     -530.483     324.129    -403.066
  H     -532.048     324.393    -402.335
  H     -534.027     332.970    -398.695
  P     -529.833     333.357    -397.401
  C     -527.389     334.157    -397.046
  O     -528.268     333.303    -397.748
  O     -529.866     333.419    -395.792
  O     -530.606     334.489    -398.015
  H     -529.940     334.349    -395.499
  H     -526.423     333.650    -396.936
  H     -527.782     334.409    -396.045
  H     -527.233     335.072    -397.616
  H     -534.384     330.927    -404.255
  H     -533.268     331.232    -402.945
  H     -534.111     332.562    -403.702

 3  4  5  6  7  8  9  10  11  12  22  25  29  30  31  32 0
 6-311+G(2d,p)
 ****
 33  36  37 0
 6-311+G(2d,p)
 ****
 1  2  13  14  15  16  17  18  19  20  21  23  24  26 0
 3-21G
 ****
 27  28  34  35  38  39  40  41  42  43  44  45  46  47  48 0
 3-21G
 ****


