%nproc=1
%NoSave
%Mem=1900MB
#P OB98/GEN NMR

erre ene a

0 1
  C     -356.547      55.797    -315.327
  O     -357.601      54.853    -315.341
  H     -355.719      55.392    -314.740
  H     -356.892      56.723    -314.860
  H     -356.194      56.001    -316.344
  P     -358.776      55.096    -316.408
  C     -360.787      56.732    -316.540
  O     -359.520      56.451    -315.965
  C     -361.293      58.092    -316.068
  O     -361.646      58.044    -314.669
  C     -360.278      59.224    -316.211
  O     -360.278      59.759    -317.532
  C     -360.829      60.228    -315.217
  O     -361.970      60.904    -315.787
  C     -361.280      59.318    -314.063
  N     -358.398      61.454    -310.474
  C     -359.272      62.035    -311.367
  N     -359.398      63.381    -311.300
  N     -359.974      61.363    -312.250
  C     -359.730      60.032    -312.216
  C     -358.880      59.336    -311.384
  C     -358.134      60.089    -310.403
  O     -357.352      59.620    -309.580
  N     -358.903      57.990    -311.650
  C     -359.745      57.873    -312.656
  N     -360.275      59.083    -313.043
  O     -359.828      53.946    -316.041
  O     -358.365      55.017    -317.837
  H     -362.567      60.215    -316.136
  H     -359.748      53.221    -316.690
  H     -357.883      62.015    -309.819
  H     -360.015      56.942    -313.136
  H     -362.168      59.707    -313.552
  H     -360.103      60.999    -314.948
  H     -358.872      63.959    -310.659
  H     -359.271      58.911    -315.905
  H     -360.034      63.827    -311.946
  H     -362.210      58.324    -316.626
  H     -361.498      55.956    -316.237
  H     -360.698      56.728    -317.634
  P     -359.407      61.076    -317.816
  C     -359.843      63.631    -317.806
  O     -360.375      62.339    -317.579
  O     -359.226      61.039    -319.407
  O     -358.092      61.133    -317.118
  H     -358.291      60.860    -319.626
  H     -360.595      64.366    -317.610
  H     -359.523      63.711    -318.824
  H     -359.009      63.792    -317.156

 6  7  8  9  10  11  12  13  14  15  26  29  33  34 0
 6-311+G(2d,p)
 ****
 36  38  39  40  41 0
 6-311+G(2d,p)
 ****
 1  2  3  4  5  16  17  18  19  20  21  22  23  24  25 0
 3-21G
 ****
 27  28  30  31  32  35  37  42  43  44  45  46  47 0
 3-21G
 ****
 48  49 0
 3-21G
 ****


