%nproc=1
%NoSave
%Mem=1900MB
#P OB98/GEN NMR

erre ene a

0 1
  C      508.740     731.954    -349.488
  O      509.092     732.886    -350.494
  H      508.938     730.948    -349.864
  H      507.679     732.040    -349.251
  H      509.340     732.121    -348.593
  P      508.895     734.437    -350.130
  C      510.302     734.797    -352.289
  O      509.236     735.260    -351.466
  C      510.638     735.854    -353.336
  O      511.066     737.073    -352.683
  C      511.783     735.469    -354.260
  O      511.375     734.569    -355.274
  C      512.202     736.829    -354.794
  O      511.382     737.247    -355.888
  C      511.979     737.744    -353.581
  N      516.131     740.721    -353.618
  C      515.019     740.708    -354.396
  N      513.948     739.889    -354.308
  C      514.088     739.029    -353.283
  C      515.163     738.926    -352.407
  C      516.223     739.828    -352.605
  N      517.363     739.827    -351.835
  N      514.963     737.896    -351.511
  C      513.789     737.396    -351.828
  N      513.223     738.049    -352.889
  O      510.138     734.742    -349.165
  O      507.595     734.780    -349.486
  H      510.466     737.287    -355.545
  H      509.840     734.723    -348.238
  H      514.987     741.450    -355.184
  H      513.310     736.552    -351.333
  H      511.522     738.700    -353.861
  H      513.238     736.801    -355.140
  H      512.610     735.038    -353.681
  H      509.729     736.079    -353.914
  H      509.997     733.873    -352.794
  H      511.171     734.592    -351.659
  H      518.114     740.454    -352.081
  H      517.495     739.096    -351.154
  P      512.342     733.340    -355.619
  C      510.265     731.956    -356.371
  O      511.577     732.405    -356.673
  O      512.342     732.463    -354.271
  O      513.723     733.729    -356.025
  H      513.229     732.073    -354.132
  H      509.903     731.347    -357.173
  H      509.620     732.800    -356.244
  H      510.283     731.382    -355.468

 6  7  8  9  10  11  12  13  14  15  25  28  32  33  34  35 0
 6-311+G(2d,p)
 ****
 36  37  40 0
 6-311+G(2d,p)
 ****
 1  2  3  4  5  16  17  18  19  20  21  22  23  24 0
 3-21G
 ****
 26  27  29  30  31  38  39 41  42  43  44  45  46  47  48 0
 3-21G
 ****


