%nproc=1
%NoSave
%Mem=1900MB
#P OB98/GEN NMR

erre ene a

0 1
  C     -341.019      48.073    -374.966
  O     -340.833      49.370    -374.436
  H     -341.758      47.546    -374.355
  H     -340.076      47.512    -374.941
  H     -341.383      48.136    -375.996
  P     -339.697      50.271    -375.135
  C     -337.274      50.719    -374.273
  O     -338.343      49.793    -374.409
  C     -335.988      49.976    -373.914
  O     -335.799      48.843    -374.791
  C     -334.723      50.811    -374.053
  O     -334.522      51.698    -372.960
  C     -333.673      49.716    -374.093
  O     -333.463      49.200    -372.764
  C     -334.367      48.671    -374.997
  N     -334.029      48.822    -376.416
  C     -333.271      47.797    -376.989
  O     -332.907      46.835    -376.318
  N     -332.913      47.898    -378.316
  C     -333.289      48.933    -379.008
  N     -332.892      48.991    -380.312
  C     -334.103      50.027    -378.448
  C     -334.429      49.909    -377.162
  O     -339.934      51.724    -374.510
  O     -339.660      50.235    -376.627
  H     -332.825      49.795    -372.330
  H     -339.203      52.328    -374.789
  H     -334.383      50.871    -379.060
  H     -335.030      50.673    -376.681
  H     -334.117      47.650    -374.683
  H     -332.702      50.062    -374.463
  H     -334.700      51.362    -375.007
  H     -336.101      49.580    -372.891
  H     -332.283      48.261    -380.649
  H     -337.533      51.435    -373.482
  H     -332.984      49.831    -380.872
  H     -337.129      51.269    -375.209
  P     -333.722      53.061    -373.241
  C     -331.247      53.704    -373.714
  O     -332.196      52.660    -373.544
  O     -333.643      53.736    -371.794
  O     -334.352      53.967    -374.256
  H     -333.753      54.708    -371.852
  H     -330.283      53.282    -373.908
  H     -331.205      54.296    -372.824
  H     -331.539      54.320    -374.539

 6  7  8  9  10  11  12  13  14  15  16  26  30  31  32  33  35 0
 6-311+G(2d,p)
 ****
 37  38 0
 6-311+G(2d,p)
 ****
 1  2  3  4  5  17  18  19  20  21  22  23  24  25 0
 3-21G
 ****
 27  28  29  34  36  39  40  41  42  43  44  45  46 0
 3-21G
 ****


