%nproc=1
%NoSave
%Mem=1900MB
#P OB98/GEN NMR

erre ene a

0 1
  C      133.868      26.866     -55.746
  O      134.259      27.916     -56.606
  H      133.893      25.926     -56.303
  H      132.850      27.030     -55.381
  H      134.559      26.796     -54.902
  P      134.190      29.404     -56.013
  C      132.271      30.768     -54.910
  O      132.638      29.772     -55.857
  C      131.368      31.800     -55.578
  O      132.137      32.587     -56.519
  C      130.231      31.196     -56.391
  O      129.147      30.769     -55.584
  C      129.862      32.368     -57.283
  O      128.958      33.269     -56.630
  C      131.225      33.036     -57.542
  N      131.722      32.749     -58.886
  C      131.338      33.649     -59.876
  O      130.631      34.631     -59.659
  N      131.766      33.360     -61.143
  C      132.479      32.258     -61.514
  O      132.783      32.032     -62.680
  C      132.842      31.333     -60.429
  C      132.449      31.614     -59.183
  O      134.675      30.309     -57.240
  O      135.013      29.632     -54.789
  H      135.578      30.635     -57.072
  H      129.376      33.498     -55.776
  H      131.502      34.002     -61.874
  H      133.407      30.447     -60.689
  H      132.694      30.941     -58.367
  H      131.145      34.125     -57.435
  H      129.374      32.026     -58.194
  H      130.605      30.376     -57.016
  H      130.975      32.473     -54.805
  H      133.170      31.270     -54.538
  H      131.763      30.288     -54.067
  P      128.600      29.275     -55.794
  C      127.873      27.931     -57.937
  O      128.168      29.182     -57.335
  O      127.222      29.350     -54.987
  O      129.554      28.231     -55.325
  H      126.864      30.255     -54.964
  H      127.608      28.082     -58.962
  H      127.056      27.471     -57.421
  H      128.733      27.297     -57.881

 6  7  8  9  10  11  12  13  14  15  16  27  31  32  33  34  35 0
 6-311+G(2d,p)
 ****
 36  37 0
 6-311+G(2d,p)
 ****
 1  2  3  4  5  17  18  19  20  21  22  23  24  25 0
 3-21G
 ****
 26  28  29  30  38  39  40  41  42  43  44  45 0
 3-21G
 ****


