%nproc=1
%NoSave
%Mem=1900MB
#P OB98/GEN NMR

erre ene a

0 1
  C      944.065    1036.720    -187.840
  O      944.877    1035.970    -186.959
  H      944.332    1036.459    -188.867
  H      944.226    1037.788    -187.696
  H      943.007    1036.477    -187.681
  P      944.757    1036.254    -185.382
  C      947.263    1035.635    -185.190
  O      945.952    1035.441    -184.681
  C      948.094    1034.352    -185.073
  O      947.546    1033.355    -185.973
  C      949.577    1034.536    -185.435
  O      950.331    1033.592    -184.662
  C      949.574    1034.151    -186.905
  O      950.874    1033.923    -187.379
  C      948.607    1032.964    -186.871
  N      948.116    1032.606    -188.193
  C      949.034    1032.032    -189.072
  O      950.201    1031.850    -188.715
  N      948.622    1031.692    -190.336
  C      947.414    1031.971    -190.707
  N      947.071    1031.628    -191.982
  C      946.418    1032.639    -189.834
  C      946.838    1032.915    -188.601
  O      943.413    1036.033    -184.784
  O      945.226    1037.781    -185.230
  H      951.406    1034.756    -187.350
  H      944.444    1038.347    -185.081
  H      945.429    1032.868    -190.207
  H      946.174    1033.408    -187.881
  H      949.100    1032.080    -186.436
  H      949.163    1034.964    -187.508
  H      949.945    1035.552    -185.250
  H      947.980    1033.961    -184.049
  H      947.789    1031.184    -192.555
  H      947.718    1036.437    -184.604
  H      946.171    1031.817    -192.391
  H      947.221    1035.949    -186.233
  P      951.668    1033.974    -183.869
  C      952.690    1031.668    -184.398
  O      952.408    1032.632    -183.394
  O      951.460    1034.972    -182.777
  O      952.657    1034.563    -184.987
  H      953.233    1035.235    -184.576
  H      953.181    1030.826    -183.956
  H      953.326    1032.102    -185.141
  H      951.776    1031.349    -184.853

 6  7  8  9  10  11  12  13  14  15  16  26  30  31  32  33  35 0
 6-311+G(2d,p)
 ****
 37  38 0
 6-311+G(2d,p)
 ****
 1  2  3  4  5  17  18  19  20  21  22  23  24  25 0
 3-21G
 ****
 27  28  29  34  36  39  40  41  42  43  44  45  46 0
 3-21G
 ****


