%nproc=1
%NoSave
%Mem=1900MB
#P OB98/GEN NMR

erre ene a

0 1
  C     1211.708     279.256    -356.072
  O     1210.777     280.323    -356.106
  H     1212.135     279.195    -355.068
  H     1212.519     279.424    -356.788
  H     1211.208     278.307    -356.290
  P     1210.096     280.689    -357.514
  C     1211.592     282.764    -357.937
  O     1211.206     281.463    -358.373
  C     1212.873     283.215    -358.639
  O     1212.516     284.182    -359.678
  C     1213.886     283.904    -357.709
  O     1215.204     283.643    -358.236
  C     1213.514     285.366    -357.875
  O     1214.516     286.209    -357.366
  C     1213.247     285.398    -359.384
  N     1212.508     286.587    -359.793
  C     1213.229     287.537    -360.517
  O     1214.426     287.359    -360.775
  N     1212.590     288.686    -360.919
  C     1211.354     288.896    -360.553
  N     1210.795     290.052    -360.960
  C     1210.584     287.944    -359.730
  C     1211.221     286.817    -359.391
  O     1208.771     281.377    -357.429
  O     1209.977     279.276    -358.263
  H     1214.223     287.142    -357.373
  H     1209.054     278.977    -358.245
  H     1209.571     288.174    -359.431
  H     1210.729     286.058    -358.792
  H     1214.183     285.360    -359.955
  H     1212.607     285.594    -357.329
  H     1213.813     283.542    -356.672
  H     1213.316     282.353    -359.146
  H     1211.355     290.693    -361.509
  H     1211.759     282.709    -356.859
  H     1209.857     290.336    -360.716
  H     1210.787     283.479    -358.128
  P     1216.062     282.364    -357.802
  C     1217.334     283.781    -356.064
  O     1216.625     282.569    -356.311
  O     1217.102     281.984    -358.805
  O     1215.003     281.170    -357.630
  H     1215.426     280.331    -357.859
  H     1217.658     283.803    -355.044
  H     1216.691     284.615    -356.253
  H     1218.186     283.834    -356.710

 6  7  8  9  10  11  12  13  14  15  16  26  30  31  32  33  35 0
 6-311+G(2d,p)
 ****
 37  38 0
 6-311+G(2d,p)
 ****
 1  2  3  4  5  17  18  19  20  21  22  23  24  25 0
 3-21G
 ****
 27  28  29  34  36  39  40  41  42  43  44  45  46 0
 3-21G
 ****


