%nproc=1
%NoSave
%Mem=1900MB
#P OB98/GEN NMR

erre ene a

0 1
  C     -199.626    -520.704    -244.406
  O     -200.391    -519.860    -243.529
  P     -201.618    -520.493    -242.704
  C     -201.897    -522.313    -240.841
  O     -201.027    -521.441    -241.554
  C     -201.253    -522.739    -239.516
  O     -199.951    -523.329    -239.749
  C     -200.999    -521.591    -238.546
  O     -202.193    -521.175    -237.897
  C     -199.977    -522.218    -237.601
  O     -200.627    -523.019    -236.599
  C     -199.162    -523.105    -238.560
  N     -197.856    -522.534    -238.889
  C     -196.834    -522.758    -237.974
  O     -196.994    -523.358    -236.914
  N     -195.605    -522.242    -238.309
  C     -195.334    -521.478    -239.414
  O     -194.216    -521.024    -239.646
  C     -196.471    -521.205    -240.297
  C     -197.662    -521.730    -239.998
  O     -202.202    -521.561    -243.746
  O     -202.681    -519.531    -242.281
  H     -201.222    -523.630    -237.074
  H     -203.157    -521.695    -243.584
  H     -194.845    -522.421    -237.678
  H     -196.300    -520.585    -241.172
  H     -198.518    -521.541    -240.646
  H     -199.001    -524.096    -238.116
  H     -199.379    -521.466    -237.072
  H     -200.533    -520.752    -239.080
  H     -201.899    -523.503    -239.053
  H     -202.087    -523.207    -241.449
  H     -202.849    -521.805    -240.662
  P     -203.020    -519.992    -238.599
  C     -204.777    -520.120    -240.549
  O     -204.204    -520.725    -239.405
  O     -201.979    -519.519    -239.722
  O     -203.439    -518.916    -237.647
  H     -201.454    -520.261    -240.071
  H     -204.037    -519.533    -241.101
  H     -205.595    -519.465    -240.230
  H     -205.172    -520.894    -241.200
  H     -198.855    -520.128    -244.872
  H     -200.269    -521.114    -245.157
  H     -199.185    -521.499    -243.841

 3  4  5  6  7  8  9  10  11  12  13  23  28  29  30  31  32 0
 6-311+G(2d,p)
 ****
 33  34 0
 6-311+G(2d,p)
 ****
 1  2  14  15  16  17  18  19  20  21  22  24  25  26 0
 3-21G
 ****
 27  35  36  37  38  39  40  41  42  43  44  45 0
 3-21G
 ****


