%nproc=1
%NoSave
%Mem=1900MB
#P OB98/GEN NMR

erre ene a

0 1
  C        0.008    -340.763    -433.319
  O       -1.139    -341.536    -433.605
  H       -0.278    -339.952    -432.647
  H        0.423    -340.333    -434.234
  H        0.765    -341.377    -432.819
  P       -1.010    -342.730    -434.667
  C        0.425    -344.346    -433.242
  O        0.380    -343.470    -434.359
  C        1.371    -345.524    -433.509
  O        2.743    -345.082    -433.304
  C        1.140    -346.733    -432.579
  O        1.510    -347.908    -433.311
  C        2.136    -346.453    -431.472
  O        2.343    -347.584    -430.668
  C        3.323    -345.934    -432.289
  N        4.302    -345.227    -431.478
  C        5.347    -346.003    -430.960
  O        5.398    -347.212    -431.189
  N        6.292    -345.393    -430.173
  C        6.160    -344.139    -429.868
  N        7.124    -343.596    -429.071
  C        5.040    -343.299    -430.348
  C        4.158    -343.904    -431.144
  O       -1.218    -342.353    -436.097
  O       -2.101    -343.798    -434.185
  H        2.973    -347.389    -429.940
  H       -2.874    -343.771    -434.781
  H        4.970    -342.263    -430.051
  H        3.301    -343.376    -431.542
  H        3.830    -346.762    -432.810
  H        1.765    -345.660    -430.810
  H        0.103    -346.809    -432.236
  H        1.286    -345.815    -434.560
  H        7.870    -344.210    -428.762
  H       -0.592    -344.715    -433.072
  H        7.116    -342.640    -428.752
  H        0.758    -343.805    -432.349
  P        0.453    -349.045    -433.722
  C       -0.293    -348.136    -436.020
  O       -0.667    -348.404    -434.671
  O       -0.092    -349.816    -432.564
  O        1.262    -350.022    -434.708
  H        0.913    -350.929    -434.618
  H       -1.125    -347.713    -436.543
  H        0.001    -349.048    -436.496
  H        0.525    -347.447    -436.033

 6  7  8  9  10  11  12  13  14  15  16  26  30  31  32  33  35 0
 6-311+G(2d,p)
 ****
 37  38 0
 6-311+G(2d,p)
 ****
 1  2  3  4  5  17  18  19  20  21  22  23  24  25 0
 3-21G
 ****
 27  28  29  34  36  39  40  41  42  43  44  45  46 0
 3-21G
 ****


