%nproc=1
%NoSave
%Mem=1900MB
#P OB98/GEN NMR

erre ene a

0 1
  C      106.209     485.355     -73.943
  O      107.099     485.653     -75.001
  H      105.990     484.285     -73.960
  H      105.274     485.909     -74.069
  H      106.666     485.608     -72.981
  P      107.527     487.192     -75.162
  C      106.830     487.417     -77.650
  O      106.578     487.801     -76.306
  C      106.118     488.360     -78.616
  O      104.686     488.179     -78.544
  C      106.382     489.840     -78.361
  O      107.606     490.251     -78.946
  C      105.169     490.476     -79.025
  O      105.340     490.581     -80.453
  C      104.053     489.478     -78.680
  N       99.953     491.785     -76.849
  C      100.359     491.591     -78.156
  N       99.578     492.140     -79.112
  N      101.434     490.929     -78.489
  C      102.130     490.464     -77.425
  C      101.823     490.577     -76.088
  C      100.614     491.286     -75.732
  O      100.164     491.436     -74.599
  N      102.764     489.958     -75.309
  C      103.660     489.508     -76.168
  N      103.324     489.805     -77.465
  O      108.958     487.109     -75.880
  O      107.592     487.975     -73.896
  H      106.095     491.162     -80.643
  H      109.499     487.870     -75.598
  H       99.105     492.289     -76.655
  H      104.556     488.964     -75.906
  H      103.312     489.398     -79.482
  H      104.994     491.489     -78.658
  H       98.961     492.915     -78.912
  H      106.365     490.056     -77.286
  H       99.883     492.021     -80.070
  H      106.429     488.086     -79.634
  H      106.461     486.399     -77.805
  H      107.910     487.437     -77.834
  P      108.220     491.660     -78.481
  C      108.483     492.373     -80.968
  O      107.960     492.687     -79.683
  O      109.801     491.413     -78.543
  O      107.775     492.115     -77.132
  H      110.265     492.097     -78.029
  H      108.227     493.151     -81.657
  H      108.068     491.446     -81.305
  H      109.548     492.286     -80.908

 6  7  8  9  10  11  12  13  14  15  26  29  33  34 0
 6-311+G(2d,p)
 ****
 36  38  39  40  41 0
 6-311+G(2d,p)
 ****
 1  2  3  4  5  16  17  18  19  20  21  22  23  24  25 0
 3-21G
 ****
 27  28  30  31  32  35  37  42  43  44  45  46  47 0
 3-21G
 ****
 48  49 0
 3-21G
 ****


