%nproc=1
%NoSave
%Mem=1900MB
#P OB98/GEN NMR

erre ene a

0 1
  C     1055.761     467.025     820.672
  O     1054.826     468.070     820.839
  H     1055.759     466.403     821.573
  H     1056.763     467.449     820.538
  H     1055.509     466.400     819.815
  P     1054.293     468.845     819.543
  C     1051.979     467.768     819.196
  O     1053.316     467.850     818.742
  C     1050.966     468.049     818.079
  O     1051.242     467.187     816.952
  C     1049.525     467.787     818.507
  O     1048.887     468.882     819.134
  C     1048.858     467.465     817.171
  O     1048.378     468.654     816.514
  C     1049.985     466.827     816.352
  N     1048.064     462.777     813.876
  C     1047.777     464.114     813.695
  N     1046.830     464.406     812.778
  N     1048.355     465.074     814.381
  C     1049.210     464.631     815.336
  C     1049.562     463.318     815.611
  C     1048.976     462.281     814.802
  O     1049.212     461.077     814.903
  N     1050.416     463.250     816.689
  C     1050.513     464.492     817.102
  N     1049.862     465.374     816.281
  O     1055.587     468.904     818.591
  O     1053.752     470.221     819.790
  H     1048.052     468.396     815.625
  H     1055.548     469.715     818.044
  H     1047.625     462.091     813.303
  H     1051.079     464.831     817.971
  H     1050.009     467.201     815.320
  H     1047.986     466.817     817.317
  H     1046.300     463.710     812.286
  H     1049.464     466.899     819.141
  H     1046.448     465.357     812.762
  H     1051.103     469.086     817.730
  H     1051.865     468.509     819.995
  H     1051.784     466.776     819.646
  P     1048.362     468.792     820.635
  C     1050.323     470.167     821.726
  O     1049.609     468.949     821.616
  O     1047.991     467.236     820.787
  O     1047.216     469.687     820.990
  H     1047.021     467.109     820.675
  H     1051.116     470.053     822.435
  H     1049.660     470.941     822.053
  H     1050.732     470.428     820.772

 6  7  8  9  10  11  12  13  14  15  26  29  33  34 0
 6-311+G(2d,p)
 ****
 36  38  39  40  41 0
 6-311+G(2d,p)
 ****
 1  2  3  4  5  16  17  18  19  20  21  22  23  24  25 0
 3-21G
 ****
 27  28  30  31  32  35  37  42  43  44  45  46  47 0
 3-21G
 ****
 48  49 0
 3-21G
 ****


