%nproc=1
%NoSave
%Mem=1900MB
#P OB98/GEN NMR

erre ene a

0 1
  C      172.397    -120.838     221.351
  O      173.205    -121.878     221.863
  H      171.494    -121.280     220.918
  H      172.925    -120.285     220.570
  H      172.099    -120.156     222.154
  P      174.647    -121.500     222.453
  C      173.933    -121.092     224.904
  O      174.635    -121.926     223.998
  C      173.965    -121.676     226.324
  O      173.365    -123.003     226.303
  C      175.383    -121.829     226.896
  O      175.290    -121.682     228.320
  C      175.705    -123.265     226.523
  O      176.826    -123.741     227.227
  C      174.355    -123.931     226.801
  N      174.238    -125.241     226.181
  C      174.455    -126.340     227.014
  O      174.740    -126.173     228.200
  N      174.373    -127.599     226.477
  C      174.164    -127.746     225.207
  N      174.112    -129.021     224.737
  C      173.990    -126.608     224.279
  C      174.032    -125.395     224.829
  O      175.112    -120.106     222.191
  O      175.631    -122.575     221.787
  H      177.078    -124.641     226.917
  H      176.150    -122.154     221.080
  H      173.836    -126.783     223.227
  H      173.918    -124.496     224.230
  H      174.187    -124.041     227.880
  H      175.949    -123.339     225.459
  H      176.093    -121.099     226.490
  H      173.339    -121.053     226.977
  H      174.247    -129.773     225.405
  H      172.896    -121.026     224.553
  H      173.976    -129.254     223.764
  H      174.366    -120.085     224.908
  P      176.338    -120.831     229.182
  C      174.744    -119.139     230.302
  O      175.606    -120.257     230.491
  O      177.076    -119.798     228.393
  O      177.363    -121.912     229.778
  H      178.242    -121.498     229.876
  H      174.320    -118.853     231.242
  H      173.961    -119.403     229.623
  H      175.304    -118.321     229.899

 6  7  8  9  10  11  12  13  14  15  16  26  30  31  32  33  35 0
 6-311+G(2d,p)
 ****
 37  38 0
 6-311+G(2d,p)
 ****
 1  2  3  4  5  17  18  19  20  21  22  23  24  25 0
 3-21G
 ****
 27  28  29  34  36  39  40  41  42  43  44  45  46 0
 3-21G
 ****


