%nproc=1
%NoSave
%Mem=1900MB
#P OB98/GEN NMR

erre ene a

0 1
  C      -67.673      47.799    -185.513
  O      -67.613      47.723    -186.920
  P      -68.508      46.723    -187.784
  C      -66.406      46.872    -189.312
  O      -67.771      46.491    -189.200
  C      -65.967      47.131    -190.763
  O      -66.097      45.918    -191.532
  C      -66.914      48.153    -191.419
  O      -66.707      49.539    -191.224
  C      -67.021      47.715    -192.880
  O      -66.153      48.461    -193.736
  C      -66.602      46.244    -192.834
  N      -69.785      44.579    -196.417
  C      -68.636      45.343    -196.558
  N      -68.428      45.874    -197.779
  N      -67.797      45.567    -195.578
  C      -68.192      45.044    -194.393
  C      -69.296      44.263    -194.138
  C      -70.195      43.981    -195.236
  O      -71.263      43.383    -195.133
  N      -69.419      43.973    -192.802
  C      -68.412      44.610    -192.244
  N      -67.664      45.312    -193.162
  O      -69.987      46.954    -187.773
  O      -68.233      45.323    -187.032
  H      -65.240      48.261    -193.482
  H      -69.058      44.798    -187.078
  H      -70.436      44.499    -197.193
  H      -68.202      44.632    -191.181
  H      -65.785      46.056    -193.542
  H      -68.041      47.870    -193.256
  H      -69.124      45.844    -198.512
  H      -67.913      47.974    -191.000
  H      -67.697      46.574    -197.873
  H      -64.918      47.413    -190.816
  H      -65.800      46.073    -188.867
  H      -66.230      47.778    -188.719
  P      -67.839      50.641    -190.972
  C      -66.549      51.811    -192.849
  O      -67.430      51.978    -191.752
  O      -67.648      51.053    -189.434
  O      -69.240      50.174    -191.213
  H      -68.478      51.440    -189.090
  H      -66.106      52.774    -193.107
  H      -67.115      51.439    -193.712
  H      -65.750      51.096    -192.609
  H      -66.983      48.539    -185.166
  H      -67.418      46.848    -185.093
  H      -68.664      48.067    -185.212

 3  4  5  6  7  8  9  10  11  12  23  26  30  31 0
 6-311+G(2d,p)
 ****
 33  35  36  37  38 0
 6-311+G(2d,p)
 ****
 1  2  13  14  15  16  17  18  19  20  21  22  24  25 0
 3-21G
 ****
 27  28  29  32  34  39  40  41  42  43  44  45  46  47  48  49 0
 3-21G
 ****


