%nproc=1
%NoSave
%Mem=1900MB
#P OB98/GEN NMR

erre ene a

0 1
  C       70.905     429.441      48.474
  O       71.391     430.753      48.703
  P       70.441     431.889      49.301
  C       69.053     432.482      47.153
  O       70.012     432.864      48.114
  C       69.054     433.510      46.015
  O       68.846     434.836      46.543
  C       70.378     433.506      45.256
  O       70.299     432.670      44.113
  C       70.571     434.973      44.919
  O       69.805     435.326      43.752
  C       69.986     435.661      46.175
  N       70.852     435.796      47.362
  C       72.009     436.565      47.284
  O       72.356     437.177      46.279
  N       72.786     436.587      48.415
  C       72.494     435.964      49.595
  O       73.297     435.790      50.503
  C       71.142     435.406      49.696
  C       70.404     435.328      48.589
  O       71.445     432.780      50.169
  O       69.285     431.398      50.111
  H       70.051     436.238      43.514
  H       71.391     432.541      51.113
  H       73.697     437.026      48.319
  H       70.814     435.028      50.655
  H       69.415     434.882      48.633
  H       69.609     436.660      45.934
  H       71.610     435.188      44.676
  H       71.194     433.188      45.918
  H       68.224     433.285      45.333
  H       68.062     432.423      47.614
  H       69.289     431.487      46.763
  P       71.558     431.775      43.699
  C       73.287     433.585      44.242
  O       72.679     432.817      43.223
  O       71.271     430.661      42.746
  O       72.098     431.229      45.105
  H       71.761     430.323      45.262
  H       74.143     434.116      43.817
  H       73.633     432.942      45.055
  H       72.574     434.318      44.626
  H       71.690     428.835      48.074
  H       70.093     429.478      47.778
  H       70.565     429.020      49.397

 3  4  5  6  7  8  9  10  11  12  13  23  28  29  30  31  32 0
 6-311+G(2d,p)
 ****
 33  34 0
 6-311+G(2d,p)
 ****
 1  2  14  15  16  17  18  19  20  21  22  24  25  26  27 0
 3-21G
 ****
 35  36  37  38  39  40  41  42  43  44  45 0
 3-21G
 ****


