%nproc=1
%NoSave
%Mem=1900MB
#P OB98/GEN NMR

erre ene a

0 1
  C      110.466     -23.614     129.609
  O      110.675     -22.346     129.022
  H      109.431     -23.930     129.464
  H      111.127     -24.339     129.127
  H      110.699     -23.580     130.677
  P      109.775     -21.144     129.589
  C      108.963     -20.500     127.219
  O      109.629     -20.075     128.398
  C      109.436     -19.676     126.024
  O      109.514     -18.285     126.436
  C      110.813     -20.091     125.480
  O      110.760     -20.277     124.062
  C      111.704     -18.900     125.780
  O      112.699     -18.687     124.785
  C      110.709     -17.749     125.855
  N      114.303     -14.140     126.069
  C      113.803     -14.840     125.029
  N      112.779     -15.717     125.023
  C      112.234     -15.819     126.247
  C      112.620     -15.152     127.399
  C      113.724     -14.291     127.282
  N      114.270     -13.619     128.354
  N      111.826     -15.520     128.469
  C      111.003     -16.427     127.982
  N      111.223     -16.651     126.647
  O      110.750     -20.418     130.633
  O      108.503     -21.574     130.236
  H      113.184     -19.526     124.675
  H      110.349     -20.463     131.521
  H      114.294     -14.680     124.073
  H      110.270     -16.981     128.553
  H      110.456     -17.364     124.859
  H      112.204     -19.061     126.743
  H      111.193     -21.003     125.952
  H      108.679     -19.735     125.233
  H      107.882     -20.366     127.338
  H      115.130     -13.116     128.206
  H      113.911     -13.815     129.279
  H      109.168     -21.563     127.056
  P      110.764     -21.801     123.544
  C      112.288     -20.997     121.599
  O      111.178     -21.797     121.991
  O      109.210     -22.184     123.532
  O      111.546     -22.728     124.412
  H      109.057     -22.975     124.082
  H      112.443     -21.094     120.545
  H      113.164     -21.323     122.120
  H      112.091     -19.973     121.838

 6  7  8  9  10  11  12  13  14  15  25  28  32  33  34  35 0
 6-311+G(2d,p)
 ****
 36  39  40 0
 6-311+G(2d,p)
 ****
 1  2  3  4  5  16  17  18  19  20  21  22  23  24 0
 3-21G
 ****
 26  27  29  30  31  37  38  41  42  43  44  45  46  47  48 0
 3-21G
 ****


