%nproc=1
%NoSave
%Mem=1900MB
#P OB98/GEN NMR

erre ene a

0 1
  C      -95.528     116.807     796.816
  O      -94.188     116.367     796.893
  H      -95.747     117.425     797.693
  H      -96.213     115.952     796.814
  H      -95.683     117.408     795.919
  P      -93.628     115.434     795.718
  C      -94.196     113.030     794.950
  O      -94.173     113.957     796.031
  C      -94.057     111.610     795.481
  O      -95.088     111.325     796.446
  C      -94.169     110.537     794.394
  O      -92.933     110.391     793.709
  C      -94.523     109.325     795.248
  O      -93.342     108.836     795.913
  C      -95.494     109.942     796.272
  N      -99.671     107.093     795.872
  C      -98.396     106.748     796.273
  N      -98.198     105.443     796.578
  N      -97.403     107.592     796.361
  C      -97.735     108.843     795.956
  C      -98.958     109.304     795.519
  C     -100.063     108.372     795.483
  O     -101.210     108.641     795.153
  N      -98.885     110.619     795.140
  C      -97.640     110.964     795.381
  N      -96.889     109.922     795.865
  O      -92.153     115.492     795.467
  O      -94.476     115.874     794.434
  H      -92.809     108.376     795.236
  H      -94.015     116.566     793.925
  H     -100.388     106.393     795.810
  H      -97.226     111.957     795.232
  H      -95.432     109.455     797.244
  H      -94.935     108.499     794.669
  H      -98.833     104.726     796.259
  H      -94.997     110.733     793.710
  H      -97.264     105.163     796.825
  H      -93.095     111.534     796.004
  H      -93.359     113.280     794.285
  H      -95.130     113.130     794.392
  P      -92.798     109.399     792.452
  C      -93.290     106.892     792.079
  O      -93.391     108.002     792.963
  O      -91.437     109.322     791.863
  O      -93.917     109.895     791.425
  H      -93.600     110.602     790.807
  H      -93.721     106.028     792.540
  H      -92.260     106.703     791.860
  H      -93.813     107.110     791.171

 6  7  8  9  10  11  12  13  14  15  26  29  33  34 0
 6-311+G(2d,p)
 ****
 36  38  39  40  41 0
 6-311+G(2d,p)
 ****
 1  2  3  4  5  16  17  18  19  20  21  22  23  24  25 0
 3-21G
 ****
 27  28  30  31  32  35  37  42  43  44  45  46  47 0
 3-21G
 ****
 48  49 0
 3-21G
 ****


