%nproc=1
%NoSave
%Mem=1900MB
#P OB98/GEN NMR

erre ene a

0 1
  C      174.889    -902.529     930.625
  O      173.794    -901.832     930.023
  P      172.329    -902.450     930.223
  C      171.674    -900.713     932.046
  O      171.826    -902.080     931.698
  C      171.190    -900.571     933.492
  O      172.218    -900.905     934.452
  C      170.762    -899.161     933.851
  O      169.493    -898.854     933.289
  C      170.766    -899.244     935.375
  O      169.554    -899.894     935.852
  C      171.972    -900.151     935.652
  N      174.633    -898.051     939.498
  C      173.449    -898.743     939.482
  N      172.816    -899.249     938.413
  C      173.506    -899.031     937.283
  C      174.702    -898.338     937.151
  C      175.271    -897.847     938.331
  N      176.457    -897.125     938.356
  N      175.102    -898.305     935.818
  C      174.159    -898.924     935.157
  N      173.175    -899.388     935.988
  O      172.608    -904.025     930.292
  O      171.370    -902.106     929.116
  H      169.602    -899.874     936.843
  H      172.293    -904.467     929.488
  H      172.987    -898.891     940.453
  H      174.127    -899.057     934.087
  H      171.789    -900.857     936.464
  H      170.806    -898.258     935.840
  H      171.495    -898.436     933.519
  H      170.343    -901.274     933.627
  H      170.971    -900.226     931.364
  H      176.756    -896.725     939.244
  H      176.897    -896.880     937.479
  H      172.650    -900.203     931.915
  P      169.453    -897.908     931.982
  C      168.470    -899.791     930.506
  O      169.598    -898.956     930.751
  O      170.916    -897.242     932.026
  O      168.303    -896.979     931.919
  H      171.618    -897.891     932.228
  H      168.690    -900.409     929.627
  H      167.600    -899.183     930.273
  H      168.281    -900.439     931.374
  H      175.801    -902.011     930.414
  H      174.942    -903.521     930.227
  H      174.743    -902.577     931.684

 3  4  5  6  7  8  9  10  11  12  22  25  29  30  31  32 0
 6-311+G(2d,p)
 ****
 33  36  37 0
 6-311+G(2d,p)
 ****
 1  2  13  14  15  16  17  18  19  20  21  23  24  26 0
 3-21G
 ****
 27  28  34  35  38  39  40  41  42  43  44  45  46  47  48 0
 3-21G
 ****


