%nproc=1
%NoSave
%Mem=1900MB
#P OB98/GEN NMR

erre ene a

0 1
  C      148.913     260.996     749.103
  O      149.861     261.985     748.761
  H      149.432     260.041     749.219
  H      148.170     260.892     748.307
  H      148.417     261.240     750.047
  P      149.385     263.514     748.680
  C      148.993     263.394     746.133
  O      149.701     264.024     747.194
  C      149.218     264.165     744.834
  O      148.570     265.456     744.900
  C      150.683     264.449     744.534
  O      151.344     263.296     744.049
  C      150.555     265.582     743.526
  O      150.267     265.072     742.215
  C      149.350     266.369     744.090
  N      149.747     267.545     744.858
  C      149.311     268.775     744.375
  O      148.657     268.902     743.343
  N      149.684     269.870     745.109
  C      150.521     269.867     746.184
  O      150.896     270.887     746.755
  C      150.972     268.541     746.637
  C      150.569     267.460     745.967
  O      149.880     264.403     749.773
  O      147.787     263.412     748.691
  H      150.199     265.849     741.626
  H      147.451     263.672     749.569
  H      149.391     270.772     744.767
  H      151.629     268.492     747.494
  H      150.897     266.473     746.277
  H      148.694     266.697     743.273
  H      151.467     266.173     743.446
  H      151.183     264.835     745.433
  H      148.755     263.595     744.015
  H      147.925     263.391     746.376
  H      149.341     262.359     746.040
  P      152.249     262.420     745.032
  C      154.514     263.562     744.632
  O      153.738     262.390     744.434
  O      151.685     261.086     745.403
  O      152.403     263.345     746.331
  H      152.028     262.885     747.105
  H      155.481     263.428     744.194
  H      154.620     263.747     745.681
  H      154.026     264.395     744.170

 6  7  8  9  10  11  12  13  14  15  16  26  31  32  33  34  35 0
 6-311+G(2d,p)
 ****
 36  37 0
 6-311+G(2d,p)
 ****
 1  2  3  4  5  17  18  19  20  21  22  23  24  25 0
 3-21G
 ****
 27  28  29  30  38  39  40  41  42  43  44  45 0
 3-21G
 ****


