%nproc=1
%NoSave
%Mem=1900MB
#P OB98/GEN NMR

erre ene a

0 1
  C      349.379     353.248    -154.356
  O      350.474     353.557    -153.521
  H      349.330     353.988    -155.159
  H      348.447     353.285    -153.786
  H      349.507     352.256    -154.801
  P      350.751     352.574    -152.280
  C      353.250     353.301    -152.177
  O      351.999     353.228    -151.503
  C      354.214     354.209    -151.411
  O      353.816     355.590    -151.592
  C      354.252     353.927    -149.906
  O      355.607     353.959    -149.450
  C      353.451     355.069    -149.294
  O      353.838     355.335    -147.949
  C      353.707     356.202    -150.295
  N      352.632     357.198    -150.265
  C      352.621     358.079    -149.182
  O      353.479     357.990    -148.297
  N      351.610     359.003    -149.090
  C      350.660     359.011    -149.974
  N      349.673     359.938    -149.818
  C      350.605     358.068    -151.108
  C      351.617     357.203    -151.195
  O      351.379     351.280    -152.981
  O      349.565     352.281    -151.421
  H      353.825     354.489    -147.454
  H      351.405     350.510    -152.364
  H      349.788     358.101    -151.812
  H      351.660     356.472    -151.997
  H      354.656     356.708    -150.076
  H      352.387     354.800    -149.291
  H      353.812     352.967    -149.644
  H      355.212     354.110    -151.855
  H      349.740     360.558    -149.021
  H      353.086     353.699    -153.183
  H      348.872     360.013    -150.427
  H      353.676     352.295    -152.248
  P      356.177     352.577    -148.858
  C      358.623     353.200    -149.454
  O      357.707     352.828    -148.433
  O      356.282     351.631    -150.143
  O      355.318     351.988    -147.783
  H      355.515     351.032    -150.192
  H      359.596     353.333    -149.029
  H      358.302     354.116    -149.904
  H      358.660     352.431    -150.197

 6  7  8  9  10  11  12  13  14  15  16  26  30  31  32  33  35 0
 6-311+G(2d,p)
 ****
 37  38 0
 6-311+G(2d,p)
 ****
 1  2  3  4  5  17  18  19  20  21  22  23  24  25 0
 3-21G
 ****
 27  28  29  34  36  39  40  41  42  43  44  45  46 0
 3-21G
 ****


