%nproc=1
%NoSave
%Mem=1900MB
#P OB98/GEN NMR

erre ene a

0 1
  C      257.037    -891.270     316.177
  O      257.587    -892.530     315.752
  P      258.912    -892.500     314.850
  C      260.827    -893.760     316.105
  O      260.192    -892.510     315.822
  C      260.708    -894.090     317.600
  O      259.327    -894.260     318.006
  C      261.407    -895.380     317.992
  O      262.791    -895.170     318.194
  C      260.722    -895.690     319.326
  O      261.300    -894.890     320.366
  C      259.275    -895.250     319.049
  N      255.363    -898.270     320.452
  C      256.042    -897.280     321.103
  N      257.077    -896.540     320.668
  C      257.405    -896.870     319.421
  C      256.821    -897.850     318.617
  C      255.756    -898.570     319.182
  N      255.066    -899.550     318.508
  N      257.438    -897.910     317.384
  C      258.380    -896.990     317.437
  N      258.407    -896.330     318.640
  O      258.912    -891.020     314.251
  O      258.922    -893.530     313.763
  H      261.227    -893.960     320.084
  H      259.285    -891.020     313.352
  H      255.691    -897.080     322.113
  H      259.055    -896.750     316.629
  H      258.814    -894.780     319.933
  H      260.848    -896.740     319.616
  H      261.209    -896.180     317.261
  H      261.124    -893.250     318.169
  H      261.879    -893.710     315.815
  H      254.299    -900.000     318.955
  H      255.348    -899.760     317.555
  H      260.368    -894.530     315.489
  P      263.748    -895.310     316.897
  C      264.621    -892.930     316.342
  O      263.630    -893.910     316.134
  O      262.948    -896.330     315.974
  O      265.130    -895.780     317.200
  H      263.565    -896.860     315.424
  H      264.564    -892.190     315.525
  H      265.622    -893.370     316.335
  H      264.453    -892.420     317.292
  H      256.161    -891.444     316.767
  H      256.778    -890.686     315.319
  H      257.762    -890.743     316.762

 3  4  5  6  7  8  9  10  11  12  22  25  29  30  31  32 0
 6-311+G(2d,p)
 ****
 33  36  37 0
 6-311+G(2d,p)
 ****
 1  2  13  14  15  16  17  18  19  20  21  23  24  26 0
 3-21G
 ****
 27  28  34  35  38  39  40  41  42  43  44  45  46  47  48 0
 3-21G
 ****


