%nproc=1
%NoSave
%Mem=1900MB
#P OB98/GEN NMR

erre ene a

0 1
  C       23.560     -32.361    -358.889
  O       22.450     -33.150    -359.277
  H       24.462     -32.973    -358.960
  H       23.441     -32.023    -357.856
  H       23.656     -31.503    -359.558
  P       21.009     -32.448    -359.207
  C       19.372     -33.761    -357.705
  O       19.982     -33.669    -358.992
  C       18.681     -35.121    -357.545
  O       19.687     -36.112    -357.204
  C       17.621     -35.138    -356.443
  O       16.518     -35.949    -356.860
  C       18.329     -35.800    -355.274
  O       17.417     -36.433    -354.373
  C       19.270     -36.773    -355.991
  N       21.087     -40.015    -352.496
  C       19.955     -40.020    -353.227
  N       19.551     -39.115    -354.157
  C       20.492     -38.165    -354.327
  C       21.689     -38.029    -353.652
  C       21.981     -39.014    -352.680
  N       23.122     -39.004    -351.914
  N       22.360     -36.893    -354.071
  C       21.578     -36.367    -354.998
  N       20.426     -37.088    -355.171
  O       20.681     -31.529    -360.333
  O       21.047     -31.770    -357.758
  H       16.870     -37.060    -354.894
  H       21.418     -32.380    -357.090
  H       19.271     -40.846    -353.045
  H       21.794     -35.460    -355.557
  H       18.789     -37.720    -356.256
  H       18.895     -35.050    -354.713
  H       17.269     -34.137    -356.187
  H       18.256     -35.424    -358.510
  H       18.632     -32.965    -357.576
  H       23.257     -39.755    -351.254
  H       23.811     -38.278    -352.055
  H       20.153     -33.641    -356.953
  P       15.032     -35.398    -356.614
  C       13.810     -37.667    -356.400
  O       13.981     -36.487    -357.185
  O       14.779     -33.991    -357.035
  O       14.862     -35.564    -355.028
  H       14.341     -34.807    -354.689
  H       13.097     -38.309    -356.872
  H       13.459     -37.399    -355.425
  H       14.747     -38.177    -356.314

 6  7  8  9  10  11  12  13  14  15  25  28  32  33  34  35 0
 6-311+G(2d,p)
 ****
 36  39  40 0
 6-311+G(2d,p)
 ****
 1  2  3  4  5  16  17  18  19  20  21  22  23  24 0
 3-21G
 ****
 26  27  29  30  31  37  38  41  42  43  44  45  46  47 0
 3-21G
 ****
 48 0
 3-21G
 ****


