%nproc=1
%NoSave
%Mem=1900MB
#P OB98/GEN NMR

erre ene a

0 1
  C     -448.648     293.095     -20.594
  O     -449.642     292.128     -20.967
  P     -450.863     292.451     -21.957
  C     -449.544     292.649     -24.171
  O     -450.487     291.900     -23.416
  C     -449.635     292.284     -25.662
  O     -448.853     293.217     -26.453
  C     -449.072     290.921     -26.032
  O     -449.908     289.861     -25.622
  C     -448.927     291.059     -27.547
  O     -450.164     290.771     -28.216
  C     -448.576     292.555     -27.708
  N     -447.202     292.776     -28.124
  C     -446.904     292.526     -29.465
  O     -447.759     292.065     -30.216
  N     -445.628     292.797     -29.913
  C     -444.718     293.179     -29.078
  N     -443.479     293.440     -29.585
  C     -444.956     293.313     -27.630
  C     -446.206     293.104     -27.225
  O     -451.287     293.884     -21.948
  O     -452.057     291.494     -21.481
  H     -452.913     291.896     -21.721
  H     -449.952     290.696     -29.170
  H     -444.150     293.595     -26.959
  H     -446.475     293.201     -26.179
  H     -449.246     293.026     -28.435
  H     -448.171     290.383     -27.958
  H     -448.078     290.808     -25.581
  H     -450.687     292.360     -25.970
  H     -443.354     293.347     -30.583
  H     -448.537     292.410     -23.813
  H     -442.707     293.765     -29.021
  H     -449.725     293.719     -24.020
  P     -449.250     288.724     -24.704
  C     -449.949     289.561     -22.349
  O     -450.130     288.602     -23.371
  O     -447.882     289.388     -24.205
  O     -448.996     287.430     -25.408
  H     -447.174     288.716     -24.187
  H     -450.878     289.650     -21.781
  H     -449.683     290.544     -22.758
  H     -449.154     289.228     -21.672
  H     -447.943     292.643     -19.929
  H     -449.120     293.922     -20.105
  H     -448.141     293.441     -21.470

 3  4  5  6  7  8  9  10  11  12  13  24  27  28  29  30  32 0
 6-311+G(2d,p)
 ****
 34  35 0
 6-311+G(2d,p)
 ****
 1  2  14  15  16  17  18  19  20  21  22  23  25  26 0
 3-21G
 ****
 31  33  36  37  38  39  40  41  42  43  44  45  46 0
 3-21G
 ****


