%nproc=1
%NoSave
%Mem=1900MB
#P OB98/GEN NMR

erre ene a

0 1
  C     -371.432     463.464     -49.590
  O     -371.950     464.168     -50.701
  H     -372.260     462.965     -49.076
  H     -370.950     464.155     -48.889
  H     -370.718     462.706     -49.921
  P     -370.896     465.006     -51.577
  C     -370.942     466.031     -53.944
  O     -371.683     465.331     -52.942
  C     -371.487     465.691     -55.334
  O     -370.902     464.429     -55.764
  C     -373.008     465.533     -55.382
  O     -373.503     466.079     -56.603
  C     -373.218     464.027     -55.369
  O     -374.451     463.638     -55.959
  C     -371.981     463.538     -56.115
  N     -372.770     458.633     -57.299
  C     -373.135     459.786     -57.912
  N     -372.863     461.056     -57.532
  C     -372.101     461.066     -56.425
  C     -371.649     459.984     -55.689
  C     -372.025     458.704     -56.161
  N     -371.680     457.537     -55.539
  N     -370.927     460.406     -54.592
  C     -370.927     461.726     -54.665
  N     -371.639     462.172     -55.751
  O     -369.553     464.376     -51.742
  O     -370.903     466.421     -50.828
  H     -374.408     462.677     -56.143
  H     -371.810     466.700     -50.601
  H     -373.723     459.667     -58.822
  H     -370.444     462.398     -53.956
  H     -372.104     463.566     -57.209
  H     -373.205     463.657     -54.329
  H     -373.504     466.016     -54.534
  H     -371.142     466.457     -56.044
  H     -369.880     465.762     -53.885
  H     -371.972     456.664     -55.950
  H     -371.105     457.569     -54.693
  H     -371.050     467.106     -53.749
  P     -374.848     466.956     -56.567
  C     -376.336     468.192     -58.286
  O     -375.357     467.178     -58.076
  O     -374.804     468.174     -55.715
  O     -375.922     465.911     -56.004
  H     -376.544     466.377     -55.414
  H     -376.586     468.236     -59.325
  H     -375.944     469.137     -57.973
  H     -377.213     467.964     -57.717

 6  7  8  9  10  11  12  13  14  15  25  28  32  33  34  35 0
 6-311+G(2d,p)
 ****
 36  39  40 0
 6-311+G(2d,p)
 ****
 1  2  3  4  5  16  17  18  19  20  21  22  23  24 0
 3-21G
 ****
 26  27  29  30  31  37  38  41  42  43  44  45  46  47 0
 3-21G
 ****
 48 0
 3-21G
 ****


