%nproc=1
%NoSave
%Mem=1900MB
#P OB98/GEN NMR

erre ene a

0 1
  C     -310.185      37.816    -104.569
  O     -310.542      36.818    -103.631
  P     -311.668      37.190    -102.548
  C     -313.364      36.642    -104.442
  O     -312.989      37.527    -103.390
  C     -314.861      36.345    -104.376
  O     -315.167      35.642    -103.158
  C     -315.738      37.583    -104.366
  O     -315.852      38.124    -105.665
  C     -317.044      37.021    -103.816
  O     -317.855      36.472    -104.867
  C     -316.556      35.908    -102.856
  N     -316.739      36.259    -101.458
  C     -318.005      35.985    -100.922
  O     -318.884      35.497    -101.633
  N     -318.246      36.308     -99.607
  C     -317.312      36.857     -98.901
  N     -317.607      37.152     -97.603
  C     -315.974      37.182     -99.431
  C     -315.759      36.863    -100.707
  O     -311.194      38.617    -102.008
  O     -311.834      36.191    -101.451
  H     -318.643      36.096    -104.423
  H     -311.519      38.772    -101.101
  H     -315.229      37.642     -98.798
  H     -314.805      37.066    -101.180
  H     -317.101      34.977    -103.047
  H     -317.644      37.794    -103.323
  H     -315.339      38.333    -103.670
  H     -315.120      35.691    -105.221
  H     -318.534      36.925     -97.269
  H     -312.811      35.704    -104.339
  H     -316.942      37.562     -96.966
  H     -313.104      37.101    -105.402
  P     -316.260      39.666    -105.798
  C     -314.266      40.678    -104.547
  O     -315.644      40.372    -104.497
  O     -317.826      39.632    -105.450
  O     -315.990      40.334    -107.104
  H     -318.217      40.511    -105.596
  H     -314.012      41.288    -103.674
  H     -314.030      41.245    -105.452
  H     -313.675      39.759    -104.516
  H     -309.430      37.435    -105.225
  H     -309.808      38.673    -104.052
  H     -311.046      38.094    -105.140

 3  4  5  6  7  8  9  10  11  12  13  21  23  27  28  29  30  32 0
 6-311+G(2d,p)
 ****
 34  35 0
 6-311+G(2d,p)
 ****
 1  2  14  15  16  17  18  19  20  22  24  25  26 0
 3-21G
 ****
 31  33  36  37  38  39  40  41  42  43  44  45  46 0
 3-21G
 ****


