%nproc=1
%NoSave
%Mem=1900MB
#P OB98/GEN NMR

erre ene a

0 1
  C      -59.821     418.302     672.135
  O      -58.627     419.047     672.266
  H      -60.407     418.419     673.052
  H      -59.595     417.239     671.993
  H      -60.405     418.676     671.292
  P      -57.602     418.982     671.034
  C      -57.823     421.466     670.386
  O      -56.984     420.463     670.950
  C      -57.489     422.838     670.982
  O      -58.075     422.923     672.305
  C      -55.983     423.088     671.122
  O      -55.703     424.461     670.818
  C      -55.709     422.829     672.596
  O      -54.564     423.529     673.069
  C      -57.031     423.271     673.233
  N      -55.284     422.831     678.013
  C      -54.948     423.656     677.000
  N      -55.477     423.717     675.758
  C      -56.483     422.832     675.625
  C      -56.933     421.924     676.568
  C      -56.278     421.940     677.810
  N      -56.599     421.076     678.839
  N      -57.957     421.156     676.040
  C      -58.125     421.602     674.807
  N      -57.245     422.610     674.507
  O      -58.155     418.447     669.756
  O      -56.391     418.142     671.660
  H      -54.450     423.319     674.021
  H      -56.180     418.440     672.565
  H      -54.143     424.360     677.210
  H      -58.861     421.229     674.099
  H      -57.062     424.350     673.416
  H      -55.545     421.754     672.749
  H      -55.389     422.436     670.476
  H      -57.967     423.614     670.371
  H      -58.876     421.234     670.585
  H      -56.097     421.162     679.705
  H      -57.353     420.420     678.714
  H      -57.665     421.474     669.306
  P      -54.206     424.856     670.402
  C      -55.174     425.985     668.289
  O      -54.274     426.104     669.388
  O      -53.324     423.729     669.977
  O      -53.648     425.543     671.746
  H      -52.710     425.298     671.853
  H      -55.128     426.872     667.693
  H      -56.170     425.854     668.656
  H      -54.899     425.140     667.693

 6  7  8  9  10  11  12  13  14  15  25  28  32  33  34  35 0
 6-311+G(2d,p)
 ****
 36  39  40 0
 6-311+G(2d,p)
 ****
 1  2  3  4  5  16  17  18  19  20  21  22  23  24 0
 3-21G
 ****
 26  27  29  30  31  37  38  41  42  43  44  45  46  47 0
 3-21G
 ****
 48 0
 3-21G
 ****


