%nproc=1
%NoSave
%Mem=1900MB
#P OB98/GEN NMR

erre ene a

0 1
  C     -434.051    -137.791    -593.011
  O     -433.412    -137.323    -591.836
  H     -433.380    -137.632    -593.861
  H     -434.972    -137.225    -593.185
  H     -434.277    -138.855    -592.925
  P     -434.157    -137.613    -590.447
  C     -433.025    -139.962    -590.083
  O     -434.220    -139.209    -590.271
  C     -432.896    -140.373    -588.620
  O     -433.994    -141.217    -588.211
  C     -431.665    -141.223    -588.322
  O     -430.470    -140.485    -588.372
  C     -432.015    -141.738    -586.935
  O     -431.751    -140.737    -585.935
  C     -433.536    -141.993    -587.075
  N     -433.852    -143.406    -587.222
  C     -433.506    -144.226    -586.132
  O     -432.976    -143.743    -585.142
  N     -433.747    -145.570    -586.232
  C     -434.298    -146.070    -587.301
  N     -434.501    -147.408    -587.333
  C     -434.702    -145.235    -588.448
  C     -434.452    -143.925    -588.349
  O     -435.671    -137.228    -590.775
  O     -433.582    -136.910    -589.257
  H     -432.306    -139.975    -586.153
  H     -436.026    -137.681    -591.560
  H     -435.173    -145.681    -589.315
  H     -434.713    -143.247    -589.150
  H     -434.073    -141.614    -586.194
  H     -431.424    -142.621    -586.659
  H     -431.638    -142.091    -589.000
  H     -432.911    -139.464    -587.996
  H     -434.190    -147.952    -586.527
  H     -432.144    -139.383    -590.404
  H     -434.891    -147.905    -588.124
  H     -433.084    -140.847    -590.724
  P     -429.068    -141.223    -588.687
  C     -429.120    -140.446    -591.146
  O     -429.075    -141.572    -590.257
  O     -428.754    -142.384    -587.796
  O     -428.006    -140.031    -588.611
  H     -428.155    -139.307    -589.242
  H     -429.121    -140.791    -592.159
  H     -428.263    -139.827    -590.981
  H     -430.010    -139.881    -590.961

 6  7  8  9  10  11  12  13  14  15  16  26  30  31  32  33  35 0
 6-311+G(2d,p)
 ****
 37  38 0
 6-311+G(2d,p)
 ****
 1  2  3  4  5  17  18  19  20  21  22  23  24  25 0
 3-21G
 ****
 27  28  29  34  36  39  40  41  42  43  44  45  46 0
 3-21G
 ****


