%nproc=1
%NoSave
%Mem=1900MB
#P OB98/GEN NMR

erre ene a

0 1
  C      468.608     252.415      16.033
  O      468.338     251.264      15.227
  P      469.424     250.080      15.242
  C      469.325     248.891      17.562
  O      468.891     248.914      16.200
  C      468.541     247.832      18.346
  O      467.272     248.342      18.786
  C      468.210     246.599      17.516
  O      469.344     245.764      17.399
  C      467.070     245.986      18.318
  O      467.547     245.059      19.310
  C      466.405     247.211      18.988
  N      465.068     247.476      18.481
  C      464.011     246.948      19.234
  O      464.243     246.281      20.245
  N      462.727     247.163      18.801
  C      462.516     247.825      17.697
  N      461.222     248.003      17.320
  C      463.605     248.376      16.864
  C      464.843     248.161      17.308
  O      470.639     250.710      16.065
  O      469.847     249.632      13.877
  H      466.773     244.514      19.554
  H      471.486     250.365      15.736
  H      463.382     248.913      15.956
  H      465.701     248.534      16.761
  H      466.335     247.063      20.072
  H      466.384     245.429      17.667
  H      467.851     246.902      16.527
  H      469.135     247.548      19.231
  H      460.500     247.609      17.923
  H      469.179     249.876      18.011
  H      460.949     248.491      16.488
  H      470.399     248.689      17.588
  P      469.776     245.302      15.932
  C      471.898     246.739      16.089
  O      471.381     245.432      15.908
  O      469.332     246.546      15.038
  O      469.213     244.009      15.424
  H      469.454     246.355      14.095
  H      472.980     246.663      16.264
  H      471.443     247.222      16.958
  H      471.729     247.339      15.190
  H      467.809     253.119      15.929
  H      469.524     252.866      15.715
  H      468.693     252.121      17.058

 3  4  5  6  7  8  9  10  11  12  13  21  23  27  28  29  30  32 0
 6-311+G(2d,p)
 ****
 34  35 0
 6-311+G(2d,p)
 ****
 1  2  14  15  16  17  18  19  20  22  24  25  26 0
 3-21G
 ****
 31  33  36  37  38  39  40  41  42  43  44  45  46 0
 3-21G
 ****


