%nproc=1
%NoSave
%Mem=1900MB
#P OB98/GEN NMR

erre ene a

0 1
  C     -175.053    -422.827     212.890
  O     -175.830    -422.164     211.915
  H     -174.489    -422.080     213.453
  H     -174.346    -423.504     212.403
  H     -175.684    -423.386     213.585
  P     -176.969    -422.985     211.140
  C     -178.855    -423.099     212.897
  O     -178.372    -422.466     211.720
  C     -180.375    -422.960     213.009
  O     -180.811    -423.563     214.260
  C     -180.871    -421.506     213.002
  O     -182.172    -421.497     212.401
  C     -180.975    -421.210     214.487
  O     -181.780    -420.079     214.735
  C     -181.509    -422.548     215.008
  N     -181.325    -422.700     216.453
  C     -182.452    -422.524     217.241
  O     -183.560    -422.222     216.786
  N     -182.269    -422.661     218.590
  C     -181.077    -422.887     219.212
  O     -180.963    -422.971     220.429
  C     -179.908    -423.020     218.328
  C     -180.083    -422.924     217.009
  O     -176.806    -424.469     211.135
  O     -176.959    -422.375     209.660
  H     -181.362    -419.273     214.357
  H     -177.225    -423.058     209.016
  H     -183.082    -422.548     219.177
  H     -178.947    -423.192     218.791
  H     -179.241    -423.019     216.327
  H     -182.580    -422.645     214.790
  H     -179.987    -421.003     214.910
  H     -180.200    -420.822     212.476
  H     -180.840    -423.536     212.202
  H     -178.374    -422.621     213.759
  H     -178.577    -424.158     212.880
  P     -182.435    -420.870     210.950
  C     -181.201    -422.534     209.414
  O     -182.467    -422.059     209.868
  O     -181.519    -419.743     210.591
  O     -183.957    -420.368     210.991
  H     -184.073    -419.621     210.377
  H     -181.349    -423.319     208.702
  H     -180.641    -422.908     210.246
  H     -180.663    -421.732     208.954

 6  7  8  9  10  11  12  13  14  15  16  26  31  32  33  34  35 0
 6-311+G(2d,p)
 ****
 36  37 0
 6-311+G(2d,p)
 ****
 1  2  3  4  5  17  18  19  20  21  22  23  24  25 0
 3-21G
 ****
 27  28  29  30  38  39  40  41  42  43  44  45 0
 3-21G
 ****


