%nproc=1
%NoSave
%Mem=1900MB
#P OB98/GEN NMR

erre ene a

0 1
  C      532.224     -50.563     277.047
  O      531.529     -51.716     276.612
  H      531.528     -49.908     277.575
  H      532.621     -50.035     276.176
  H      533.043     -50.834     277.726
  P      532.405     -52.985     276.171
  C      531.772     -54.116     278.425
  O      532.816     -53.755     277.522
  C      532.344     -54.892     279.612
  O      532.537     -56.287     279.208
  C      533.697     -54.361     280.127
  O      533.723     -54.489     281.561
  C      534.688     -55.344     279.533
  O      535.908     -55.389     280.265
  C      533.880     -56.632     279.594
  N      535.477     -61.396     279.531
  C      534.778     -60.694     280.496
  N      534.508     -61.349     281.651
  N      534.382     -59.464     280.348
  C      534.697     -58.939     279.130
  C      535.393     -59.526     278.094
  C      535.844     -60.879     278.288
  O      536.488     -61.551     277.479
  N      535.563     -58.634     277.056
  C      534.995     -57.525     277.477
  N      534.451     -57.653     278.729
  O      533.778     -52.309     275.691
  O      531.807     -53.834     275.107
  H      535.725     -55.785     281.146
  H      533.760     -52.179     274.725
  H      535.788     -62.340     279.713
  H      534.958     -56.592     276.926
  H      533.851     -57.064     280.605
  H      534.918     -55.064     278.489
  H      534.764     -62.299     281.843
  H      533.897     -53.321     279.843
  H      533.959     -60.851     282.351
  H      531.599     -54.896     280.417
  H      531.049     -54.744     277.893
  H      531.270     -53.210     278.765
  P      533.927     -53.159     282.425
  C      531.568     -53.468     283.502
  O      532.469     -52.603     282.831
  O      534.436     -52.086     281.352
  O      534.880     -53.311     283.561
  H      535.066     -51.469     281.772
  H      530.653     -52.948     283.697
  H      532.002     -53.787     284.427
  H      531.369     -54.322     282.888

 6  7  8  9  10  11  12  13  14  15  26  29  33  34 0
 6-311+G(2d,p)
 ****
 36  38  39  40  41 0
 6-311+G(2d,p)
 ****
 1  2  3  4  5  16  17  18  19  20  21  22  23  24  25 0
 3-21G
 ****
 27  28  30  31  32  35  37  42  43  44  45  46  47 0
 3-21G
 ****
 48  49 0
 3-21G
 ****


