%nproc=1
%NoSave
%Mem=1900MB
#P OB98/GEN NMR

erre ene a

0 1
  C      -60.708     638.574     318.913
  O      -62.099     638.774     318.742
  H      -60.286     638.222     317.969
  H      -60.528     637.817     319.684
  H      -60.229     639.513     319.197
  P      -62.926     639.239     320.033
  C      -64.050     636.913     320.024
  O      -63.298     637.865     320.779
  C      -64.917     636.056     320.953
  O      -65.987     636.891     321.481
  C      -65.566     634.859     320.252
  O      -65.630     633.758     321.161
  C      -66.977     635.347     319.976
  O      -67.905     634.269     319.815
  C      -67.240     636.231     321.192
  N      -72.273     636.968     321.349
  C      -71.486     635.975     321.829
  N      -70.143     635.872     321.762
  C      -69.608     636.962     321.174
  C      -70.278     638.050     320.646
  C      -71.681     638.025     320.747
  N      -72.494     639.012     320.239
  N      -69.383     638.945     320.095
  C      -68.190     638.411     320.294
  N      -68.282     637.204     320.936
  O      -64.076     640.154     319.775
  O      -61.771     639.834     320.970
  H      -68.810     634.640     319.751
  H      -61.001     639.241     321.005
  H      -72.004     635.158     322.322
  H      -67.239     638.843     319.997
  H      -67.541     635.657     322.076
  H      -66.994     635.938     319.054
  H      -65.049     634.555     319.342
  H      -64.310     635.740     321.808
  H      -63.374     636.268     319.453
  H      -73.490     638.916     320.346
  H      -72.080     639.814     319.785
  H      -64.687     637.470     319.316
  P      -64.541     632.583     321.030
  C      -66.003     630.933     319.690
  O      -64.840     631.755     319.690
  O      -64.339     631.748     322.249
  O      -63.202     633.378     320.651
  H      -62.449     632.992     321.153
  H      -66.089     630.437     318.746
  H      -66.869     631.540     319.855
  H      -65.925     630.204     320.470

 6  7  8  9  10  11  12  13  14  15  25  28  32  33  34  35 0
 6-311+G(2d,p)
 ****
 36  39  40 0
 6-311+G(2d,p)
 ****
 1  2  3  4  5  16  17  18  19  20  21  22  23  24 0
 3-21G
 ****
 26  27  29  30  31  37  38  41  42  43  44  45  46  47 0
 3-21G
 ****
 48 0
 3-21G
 ****


