%nproc=1
%NoSave
%Mem=1900MB
#P OB98/GEN NMR

erre ene a

0 1
  C     -209.631      -9.597     -83.334
  O     -209.791      -9.926     -81.968
  H     -209.765     -10.501     -83.933
  H     -208.619      -9.214     -83.501
  H     -210.370      -8.852     -83.644
  P     -209.942      -8.711     -80.933
  C     -212.193      -7.427     -81.039
  O     -211.507      -8.581     -80.580
  C     -213.670      -7.489     -80.639
  O     -214.321      -8.526     -81.423
  C     -213.897      -7.819     -79.154
  O     -215.010      -7.055     -78.676
  C     -214.260      -9.295     -79.172
  O     -215.044      -9.681     -78.043
  C     -214.990      -9.410     -80.508
  N     -217.906     -13.199     -82.113
  C     -218.239     -11.903     -81.767
  N     -219.545     -11.566     -81.854
  N     -217.363     -11.013     -81.369
  C     -216.089     -11.483     -81.364
  C     -215.636     -12.744     -81.677
  C     -216.618     -13.727     -82.092
  O     -216.391     -14.897     -82.383
  N     -214.273     -12.840     -81.516
  C     -213.909     -11.638     -81.103
  N     -214.970     -10.779     -81.004
  O     -209.655      -7.422     -81.844
  O     -209.030      -8.758     -79.751
  H     -215.893      -9.189     -78.090
  H     -208.842      -6.977     -81.538
  H     -218.624     -13.849     -82.399
  H     -212.896     -11.340     -80.858
  H     -216.041      -9.106     -80.438
  H     -213.343      -9.901     -79.173
  H     -220.264     -12.182     -82.199
  H     -213.024      -7.617     -78.533
  H     -219.806     -10.604     -81.641
  H     -214.147      -6.539     -80.907
  H     -212.112      -7.375     -82.130
  H     -211.730      -6.532     -80.605
  P     -214.900      -6.457     -77.190
  C     -213.650      -4.263     -77.774
  O     -214.849      -4.853     -77.289
  O     -213.415      -6.857     -76.747
  O     -215.922      -7.008     -76.242
  H     -213.448      -7.572     -76.081
  H     -213.756      -3.198     -77.787
  H     -213.456      -4.614     -78.766
  H     -212.836      -4.533     -77.134

 6  7  8  9  10  11  12  13  14  15  26  29  33  34 0
 6-311+G(2d,p)
 ****
 36  38  39  40  41 0
 6-311+G(2d,p)
 ****
 1  2  3  4  5  16  17  18  19  20  21  22  23  24  25 0
 3-21G
 ****
 27  28  30  31  32  35  37  42  43  44  45  46  47 0
 3-21G
 ****
 48  49 0
 3-21G
 ****


