%nproc=1
%NoSave
%Mem=1900MB
#P OB98/GEN NMR

erre ene a

0 1
  C     -483.854     -74.612    -554.425
  O     -483.942     -75.872    -553.755
  P     -485.378     -76.602    -553.796
  C     -486.009     -75.274    -551.652
  O     -486.411     -75.714    -552.937
  C     -487.216     -74.761    -550.858
  O     -488.275     -75.739    -550.764
  C     -486.864     -74.382    -549.417
  O     -486.261     -73.094    -549.387
  C     -488.240     -74.406    -548.748
  O     -488.951     -73.163    -548.956
  C     -488.943     -75.547    -549.491
  N     -490.846     -78.052    -545.489
  C     -490.922     -76.703    -545.826
  N     -491.624     -75.920    -544.973
  N     -490.358     -76.178    -546.876
  C     -489.696     -77.083    -547.644
  C     -489.573     -78.442    -547.433
  C     -490.200     -79.008    -546.254
  O     -490.180     -80.188    -545.932
  N     -488.871     -79.041    -548.450
  C     -488.459     -78.023    -549.193
  N     -488.990     -76.823    -548.784
  O     -485.154     -77.915    -552.892
  O     -485.822     -76.955    -555.175
  H     -489.224     -73.109    -549.888
  H     -485.157     -78.706    -553.465
  H     -491.286     -78.392    -544.668
  H     -487.816     -78.115    -550.050
  H     -489.991     -75.302    -549.726
  H     -488.157     -74.550    -547.671
  H     -492.089     -76.244    -544.142
  H     -486.214     -75.143    -548.969
  H     -491.701     -74.923    -545.198
  H     -487.615     -73.882    -551.392
  H     -485.261     -74.482    -551.743
  H     -485.522     -76.105    -551.129
  P     -484.715     -73.008    -548.952
  C     -485.444     -72.422    -546.515
  O     -484.662     -73.251    -547.356
  O     -484.380     -71.440    -549.107
  O     -483.782     -73.849    -549.759
  H     -483.518     -71.345    -549.536
  H     -485.714     -73.001    -545.622
  H     -486.367     -72.095    -547.015
  H     -484.870     -71.561    -546.213
  H     -482.860     -74.226    -554.330
  H     -484.546     -73.925    -553.985
  H     -484.089     -74.742    -555.461

 3  4  5  6  7  8  9  10  11  12  23  26  30  31 0
 6-311+G(2d,p)
 ****
 33  35  36  37  38 0
 6-311+G(2d,p)
 ****
 1  2  13  14  15  16  17  18  19  20  21  22  24  25 0
 3-21G
 ****
 27  28  29  32  34  39  40  41  42  43  44  45  46  47  48  49 0
 3-21G
 ****


