%nproc=1
%NoSave
%Mem=1900MB
#P OB98/GEN NMR

erre ene a

0 1
  C      136.999     917.558    1318.135
  O      136.715     916.469    1317.277
  P      136.212     916.807    1315.776
  C      133.714     916.081    1316.150
  O      134.955     915.855    1315.505
  C      132.577     915.534    1315.280
  O      132.517     916.271    1314.029
  C      132.705     914.073    1314.906
  O      132.368     913.212    1315.972
  C      131.763     914.003    1313.695
  O      130.406     913.903    1314.132
  C      131.998     915.370    1313.029
  N      132.892     915.297    1311.881
  C      132.298     915.269    1310.619
  O      131.081     915.300    1310.458
  N      133.152     915.193    1309.547
  C      134.513     915.069    1309.629
  O      135.227     914.965    1308.626
  C      135.102     915.074    1310.957
  C      134.274     915.190    1312.030
  O      137.423     916.156    1314.933
  O      136.009     918.264    1315.555
  H      137.848     915.415    1315.416
  H      129.851     914.000    1313.328
  H      132.742     915.179    1308.637
  H      136.182     914.983    1311.065
  H      134.683     915.173    1313.036
  H      131.039     915.800    1312.690
  H      131.989     913.127    1313.051
  H      133.736     913.873    1314.584
  H      131.627     915.717    1315.827
  H      133.583     917.168    1316.283
  H      133.728     915.614    1317.131
  P      133.411     912.008    1316.279
  C      133.277     910.529    1314.130
  O      132.870     910.742    1315.466
  O      133.062     911.687    1317.795
  O      134.836     912.364    1316.050
  H      132.089     911.681    1317.975
  H      133.132     909.476    1313.866
  H      134.332     910.776    1313.983
  H      132.669     911.146    1313.463
  H      137.318     917.188    1319.087
  H      136.118     918.152    1318.261
  H      137.775     918.157    1317.706

 3  4  5  6  7  8  9  10  11  12  13  24  28  29  30  31  32 0
 6-311+G(2d,p)
 ****
 33  34 0
 6-311+G(2d,p)
 ****
 1  2  14  15  16  17  18  19  20  21  22  23  25  26  27 0
 3-21G
 ****
 35  36  37  38  39  40  41  42  43  44  45 0
 3-21G
 ****


