%nproc=1
%NoSave
%Mem=1900MB
#P OB98/GEN NMR

erre ene a

0 1
  C     -127.910    -470.667    -152.652
  O     -128.458    -471.478    -153.668
  H     -128.279    -469.646    -152.776
  H     -126.815    -470.649    -152.723
  H     -128.211    -471.040    -151.668
  P     -128.003    -473.014    -153.693
  C     -130.146    -474.025    -152.694
  O     -128.789    -473.681    -152.463
  C     -130.693    -474.887    -151.540
  O     -130.049    -476.183    -151.602
  C     -130.428    -474.286    -150.164
  O     -131.546    -474.536    -149.316
  C     -129.231    -475.073    -149.659
  O     -129.165    -475.109    -148.231
  C     -129.453    -476.436    -150.309
  N     -125.263    -478.021    -147.858
  C     -126.401    -477.422    -147.417
  N     -127.477    -477.059    -148.156
  C     -127.316    -477.390    -149.435
  C     -126.224    -477.978    -150.033
  C     -125.146    -478.306    -149.182
  N     -123.983    -478.879    -149.614
  N     -126.426    -478.136    -151.407
  C     -127.633    -477.646    -151.618
  N     -128.201    -477.174    -150.470
  O     -126.523    -473.246    -153.709
  O     -128.802    -473.577    -154.961
  H     -128.473    -475.740    -147.964
  H     -129.717    -473.256    -154.975
  H     -126.455    -477.220    -146.359
  H     -128.132    -477.602    -152.578
  H     -130.138    -477.079    -149.738
  H     -128.293    -474.616    -150.029
  H     -130.226    -473.212    -150.197
  H     -131.773    -475.053    -151.712
  H     -130.250    -474.576    -153.646
  H     -123.264    -479.081    -148.927
  H     -123.885    -479.117    -150.596
  H     -130.715    -473.092    -152.773
  P     -131.938    -473.419    -148.227
  C     -134.154    -472.950    -149.468
  O     -132.978    -472.387    -148.892
  O     -130.796    -472.797    -147.490
  O     -132.877    -474.244    -147.212
  H     -132.709    -473.957    -146.298
  H     -134.761    -472.168    -149.875
  H     -134.704    -473.474    -148.715
  H     -133.879    -473.630    -150.247

 6  7  8  9  10  11  12  13  14  15  25  28  32  33  34  35 0
 6-311+G(2d,p)
 ****
 36  39  40 0
 6-311+G(2d,p)
 ****
 1  2  3  4  5  16  17  18  19  20  21  22  23  24 0
 3-21G
 ****
 26  27  29  30  31  37  38  41  42  43  44  45  46  47 0
 3-21G
 ****
 48 0
 3-21G
 ****


