%nproc=1
%NoSave
%Mem=1900MB
#P OB98/GEN NMR

erre ene a

0 1
  C      -19.061     -82.780    -149.631
  O      -18.758     -82.337    -148.322
  P      -18.965     -83.374    -147.118
  C      -16.736     -82.850    -145.872
  O      -17.510     -83.796    -146.597
  C      -15.412     -82.603    -146.597
  O      -15.650     -82.276    -147.983
  C      -14.616     -81.435    -146.032
  O      -13.929     -81.800    -144.847
  C      -13.689     -81.103    -147.193
  O      -12.537     -81.960    -147.194
  C      -14.589     -81.397    -148.411
  N      -15.107     -80.183    -149.032
  C      -14.368     -79.681    -150.099
  O      -13.325     -80.204    -150.495
  N      -14.845     -78.535    -150.672
  C      -15.933     -77.823    -150.257
  O      -16.280     -76.770    -150.778
  C      -16.659     -78.385    -149.106
  C      -16.216     -79.516    -148.551
  O      -19.509     -84.695    -147.839
  O      -19.892     -82.906    -146.048
  H      -11.976     -81.672    -146.447
  H      -20.156     -85.146    -147.263
  H      -14.339     -78.170    -151.462
  H      -17.527     -77.846    -148.750
  H      -16.728     -79.937    -147.694
  H      -14.025     -81.955    -149.170
  H      -13.322     -80.074    -147.147
  H      -15.282     -80.582    -145.851
  H      -14.819     -83.526    -146.561
  H      -16.541     -83.236    -144.868
  H      -17.303     -81.919    -145.780
  P      -13.845     -80.694    -143.685
  C      -15.164     -82.140    -141.955
  O      -15.115     -80.976    -142.750
  O      -14.213     -79.370    -144.506
  O      -12.516     -80.661    -143.008
  H      -14.839     -79.549    -145.228
  H      -14.174     -82.407    -141.575
  H      -15.563     -82.967    -142.546
  H      -15.829     -81.958    -141.106
  H      -18.877     -81.988    -150.327
  H      -20.091     -83.067    -149.681
  H      -18.445     -83.620    -149.875

 3  4  5  6  7  8  9  10  11  12  13  23  28  29  30  31  32 0
 6-311+G(2d,p)
 ****
 33  34 0
 6-311+G(2d,p)
 ****
 1  2  14  15  16  17  18  19  20  21  22  24  25  26 0
 3-21G
 ****
 27  35  36  37  38  39  40  41  42  43  44  45 0
 3-21G
 ****


