%nproc=1
%NoSave
%Mem=1900MB
#P OB98/GEN NMR

erre ene a

0 1
  C      520.291     143.418    -141.536
  O      518.932     143.809    -141.330
  P      518.311     143.655    -139.858
  C      517.707     141.075    -140.077
  O      517.304     142.410    -139.828
  C      516.477     140.160    -140.072
  O      515.927     140.079    -138.736
  C      515.357     140.642    -140.989
  O      515.527     140.192    -142.314
  C      514.130     140.081    -140.304
  O      513.992     138.680    -140.595
  C      514.489     140.300    -138.810
  N      514.175     141.602    -138.195
  C      513.143     141.705    -137.260
  O      512.444     140.754    -136.904
  N      512.927     142.949    -136.736
  C      513.730     144.046    -136.897
  O      513.522     145.126    -136.344
  C      514.893     143.853    -137.767
  C      515.050     142.664    -138.384
  O      517.343     144.925    -139.728
  O      519.318     143.602    -138.759
  H      514.728     138.218    -140.144
  H      517.669     145.516    -139.019
  H      512.142     143.051    -136.106
  H      515.564     144.684    -137.895
  H      515.903     142.518    -139.027
  H      514.005     139.535    -138.193
  H      513.213     140.562    -140.669
  H      515.292     141.742    -140.960
  H      516.794     139.158    -140.376
  H      518.429     140.744    -139.325
  H      518.215     141.031    -141.048
  P      516.571     140.927    -143.287
  C      514.628     142.531    -143.800
  O      515.673     141.748    -144.345
  O      517.627     140.062    -143.880
  O      517.173     142.091    -142.373
  H      518.033     141.810    -141.962
  H      514.202     143.150    -144.589
  H      515.016     143.173    -143.007
  H      513.836     141.881    -143.409
  H      520.557     143.579    -142.560
  H      520.404     142.381    -141.297
  H      520.929     144.001    -140.906

 3  4  5  6  7  8  9  10  11  12  13  23  28  29  30  31  32 0
 6-311+G(2d,p)
 ****
 33  34 0
 6-311+G(2d,p)
 ****
 1  2  14  15  16  17  18  19  20  21  22  24  25  26  27 0
 3-21G
 ****
 35  36  37  38  39  40  41  42  43  44  45 0
 3-21G
 ****


