%nproc=1
%NoSave
%Mem=1900MB
#P OB98/GEN NMR

erre ene a

0 1
  C       15.797    -119.755     139.541
  O       15.906    -118.547     140.300
  P       16.893    -117.425     139.712
  C       18.425    -116.316     141.493
  O       17.154    -116.336     140.866
  C       18.416    -115.398     142.714
  O       18.216    -114.005     142.354
  C       17.320    -115.723     143.715
  O       17.708    -116.825     144.513
  C       17.212    -114.420     144.503
  O       18.204    -114.364     145.548
  C       17.485    -113.365     143.428
  N       14.535    -109.238     143.675
  C       15.581    -109.629     144.493
  N       15.903    -108.797     145.497
  N       16.251    -110.739     144.327
  C       15.826    -111.488     143.279
  C       14.815    -111.198     142.384
  C       14.075    -109.958     142.582
  O       13.156    -109.554     141.877
  N       14.714    -112.153     141.415
  C       15.569    -113.087     141.797
  N       16.317    -112.699     142.887
  O       15.983    -116.654     138.650
  O       18.117    -117.991     139.077
  H       19.044    -114.066     145.164
  H       16.286    -116.852     137.740
  H       14.043    -108.385     143.862
  H       15.707    -114.040     141.307
  H       18.135    -112.563     143.817
  H       16.233    -114.326     144.987
  H       15.427    -107.913     145.685
  H       16.378    -115.933     143.188
  H       16.678    -109.056     146.100
  H       19.403    -115.468     143.194
  H       19.188    -115.975     140.784
  H       18.700    -117.340     141.780
  P       16.580    -117.871     144.965
  C       16.961    -118.522     147.454
  O       17.217    -118.820     146.095
  O       16.421    -118.827     143.697
  O       15.269    -117.233     145.329
  H       15.482    -118.976     143.512
  H       16.984    -119.443     148.031
  H       15.988    -118.032     147.597
  H       17.750    -117.852     147.839
  H       15.116    -120.422     140.028
  H       16.759    -120.218     139.468
  H       15.434    -119.528     138.560

 3  4  5  6  7  8  9  10  11  12  23  26  30  31 0
 6-311+G(2d,p)
 ****
 33  35  36  37  38 0
 6-311+G(2d,p)
 ****
 1  2  13  14  15  16  17  18  19  20  21  22  24  25 0
 3-21G
 ****
 27  28  29  32  34  39  40  41  42  43  44  45  46  47  48  49 0
 3-21G
 ****


