%nproc=1
%NoSave
%Mem=1900MB
#P OB98/GEN NMR

erre ene a

0 1
  C     -103.591     194.209    -369.279
  O     -102.698     195.247    -368.928
  P     -103.248     196.735    -368.679
  C     -101.375     197.591    -370.225
  O     -102.764     197.660    -369.896
  C     -101.181     197.627    -371.743
  O     -101.824     196.493    -372.367
  C     -101.790     198.853    -372.419
  O     -101.037     200.025    -372.167
  C     -101.811     198.394    -373.869
  O     -100.517     198.557    -374.479
  C     -102.156     196.895    -373.725
  N     -103.542     196.608    -374.046
  C     -103.770     195.895    -375.230
  O     -102.834     195.613    -375.977
  N     -105.059     195.528    -375.539
  C     -106.041     195.940    -374.796
  N     -107.286     195.495    -375.122
  C     -105.854     196.831    -373.637
  C     -104.593     197.102    -373.301
  O     -102.974     197.293    -367.324
  O     -104.828     196.610    -368.937
  H     -105.303     197.015    -368.185
  H     -100.538     198.038    -375.311
  H     -106.713     197.201    -373.088
  H     -104.362     197.728    -372.447
  H     -101.502     196.296    -374.375
  H     -102.522     198.964    -374.478
  H     -102.824     198.989    -372.063
  H     -100.101     197.570    -371.945
  H     -107.367     194.871    -375.913
  H     -100.967     196.661    -369.823
  H     -108.049     195.481    -374.443
  H     -100.850     198.433    -369.748
  P     -101.644     201.064    -371.105
  C     -101.412     202.879    -372.943
  O     -102.224     202.310    -371.932
  O     -100.343     201.656    -370.384
  O     -102.596     200.468    -370.112
  H     -100.536     201.820    -369.436
  H     -102.047     203.448    -373.621
  H     -100.878     202.108    -373.516
  H     -100.680     203.560    -372.482
  H     -103.046     193.296    -369.403
  H     -104.084     194.457    -370.196
  H     -104.319     194.087    -368.504

 3  4  5  6  7  8  9  10  11  12  13  24  27  28  29  30  32 0
 6-311+G(2d,p)
 ****
 34  35 0
 6-311+G(2d,p)
 ****
 1  2  14  15  16  17  18  19  20  21  22  23  25  26 0
 3-21G
 ****
 31  33  36  37  38  39  40  41  42  43  44  45  46 0
 3-21G
 ****


