%nproc=1
%NoSave
%Mem=1900MB
#P OB98/GEN NMR

erre ene a

0 1
  C      -32.333      46.684     -29.034
  O      -32.938      46.393     -30.275
  P      -32.594      45.091     -31.135
  C      -34.789      44.649     -32.452
  O      -33.455      45.143     -32.491
  C      -35.609      45.039     -33.690
  O      -35.782      46.470     -33.720
  C      -34.847      44.669     -34.965
  O      -34.910      43.353     -35.477
  C      -35.194      45.764     -35.966
  O      -36.230      45.373     -36.868
  C      -35.663      46.919     -35.079
  N      -33.938      50.819     -37.819
  C      -35.048      50.026     -38.037
  N      -35.655      50.179     -39.233
  N      -35.496      49.156     -37.171
  C      -34.726      49.050     -36.063
  C      -33.615      49.789     -35.729
  C      -33.154      50.777     -36.676
  O      -32.127      51.440     -36.557
  N      -33.048      49.357     -34.559
  C      -33.789      48.329     -34.202
  N      -34.796      48.080     -35.104
  O      -32.506      43.798     -30.392
  O      -31.110      45.445     -31.664
  H      -35.987      44.510     -37.248
  H      -30.609      44.608     -31.711
  H      -33.592      51.418     -38.557
  H      -33.622      47.715     -33.325
  H      -36.660      47.260     -35.383
  H      -34.325      46.012     -36.585
  H      -35.253      50.731     -39.977
  H      -33.781      44.815     -34.749
  H      -36.362      49.501     -39.495
  H      -36.617      44.618     -33.642
  H      -35.255      45.037     -31.541
  H      -34.771      43.559     -32.363
  P      -34.037      42.756     -36.675
  C      -34.207      40.305     -35.964
  O      -34.527      41.259     -36.961
  O      -32.584      42.539     -36.036
  O      -33.947      43.628     -37.884
  H      -31.914      42.518     -36.744
  H      -34.307      39.302     -36.386
  H      -34.900      40.408     -35.123
  H      -33.182      40.440     -35.607
  H      -32.724      47.604     -28.654
  H      -31.275      46.773     -29.165
  H      -32.541      45.895     -28.342

 3  4  5  6  7  8  9  10  11  12  23  26  30  31 0
 6-311+G(2d,p)
 ****
 33  35  36  37  38 0
 6-311+G(2d,p)
 ****
 1  2  13  14  15  16  17  18  19  20  21  22  24  25 0
 3-21G
 ****
 27  28  29  32  34  39  40  41  42  43  44  45  46  47  48  49 0
 3-21G
 ****


