%nproc=1
%NoSave
%Mem=1900MB
#P OB98/GEN NMR

erre ene a

0 1
  C      -89.308     289.016     336.810
  O      -90.528     288.306     337.030
  P      -91.431     287.882     335.782
  C      -90.609     285.460     335.412
  O      -91.682     286.301     335.819
  C      -91.062     284.540     334.273
  O      -89.937     283.995     333.548
  C      -91.830     283.318     334.772
  O      -93.114     283.549     335.314
  C      -91.732     282.372     333.587
  O      -92.729     282.659     332.603
  C      -90.321     282.696     333.042
  N      -89.332     281.677     333.394
  C      -88.911     280.853     332.355
  O      -89.357     280.922     331.214
  N      -87.975     279.910     332.688
  C      -87.459     279.690     333.934
  O      -86.641     278.816     334.177
  C      -87.963     280.577     334.993
  C      -88.863     281.515     334.681
  O      -91.011     288.429     334.460
  O      -92.880     288.461     336.181
  H      -92.625     282.008     331.888
  H      -93.280     288.847     335.377
  H      -87.650     279.304     331.947
  H      -87.581     280.430     335.992
  H      -89.245     282.181     335.450
  H      -90.344     282.778     331.950
  H      -91.875     281.331     333.891
  H      -91.242     282.869     335.586
  H      -91.659     285.125     333.568
  H      -90.255     284.869     336.260
  H      -89.764     286.086     335.098
  P      -93.495     283.233     336.839
  C      -92.826     285.240     338.336
  O      -93.833     284.617     337.573
  O      -92.634     282.262     337.571
  O      -94.961     282.585     336.664
  H      -95.084     281.915     337.364
  H      -93.232     286.153     338.773
  H      -91.976     285.507     337.698
  H      -92.491     284.581     339.143
  H      -88.837     289.216     337.750
  H      -89.518     289.940     336.312
  H      -88.655     288.424     336.203

 3  4  5  6  7  8  9  10  11  12  13  23  28  29  30  31  32 0
 6-311+G(2d,p)
 ****
 33  34 0
 6-311+G(2d,p)
 ****
 1  2  14  15  16  17  18  19  20  21  22  24  25  26  27 0
 3-21G
 ****
 35  36  37  38  39  40  41  42  43  44  45 0
 3-21G
 ****


