%nproc=1
%NoSave
%Mem=1900MB
#P OB98/GEN NMR

erre ene a

0 1
  C      504.060    -375.753     105.572
  O      503.823    -374.563     104.848
  H      504.608    -375.504     106.484
  H      504.667    -376.442     104.979
  H      503.119    -376.234     105.850
  P      502.890    -374.626     103.548
  C      504.322    -372.753     102.504
  O      503.753    -374.045     102.327
  C      505.219    -372.414     101.316
  O      506.343    -373.320     101.270
  C      504.529    -372.551      99.967
  O      503.649    -371.475      99.718
  C      505.730    -372.631      99.040
  O      506.243    -371.325      98.746
  C      506.740    -373.435      99.886
  N      506.815    -374.836      99.472
  C      508.078    -375.315      99.151
  O      509.102    -374.637      99.215
  N      508.126    -376.607      98.690
  C      507.044    -377.385      98.398
  O      507.121    -378.429      97.762
  C      505.742    -376.850      98.813
  C      505.683    -375.612      99.311
  O      501.529    -374.037     103.697
  O      502.817    -376.193     103.214
  H      501.959    -376.544     103.524
  H      505.605    -370.920      98.123
  H      509.035    -376.950      98.417
  H      504.865    -377.469      98.662
  H      504.728    -375.181      99.595
  H      507.742    -372.997      99.807
  H      505.477    -373.109      98.092
  H      503.985    -373.505      99.924
  H      505.607    -371.398     101.454
  H      504.919    -372.756     103.424
  H      503.516    -372.018     102.606
  P      502.213    -371.741      99.059
  C      501.600    -369.311      98.482
  O      501.941    -370.596      97.968
  O      501.098    -371.965     100.026
  O      502.442    -373.043      98.149
  H      501.742    -373.695      98.351
  H      501.442    -368.632      97.670
  H      502.397    -368.950      99.098
  H      500.705    -369.386      99.064

 6  7  8  9  10  11  12  13  14  15  16  27  31  32  33  34  35 0
 6-311+G(2d,p)
 ****
 36  37 0
 6-311+G(2d,p)
 ****
 1  2  3  4  5  17  18  19  20  21  22  23  24  25 0
 3-21G
 ****
 26  28  29  30  38  39  40  41  42  43  44  45 0
 3-21G
 ****


