%nproc=1
%NoSave
%Mem=1900MB
#P OB98/GEN NMR

erre ene a

0 1
  C      -43.095     -64.441      20.808
  O      -43.925     -63.749      21.755
  P      -45.385     -64.332      22.091
  C      -46.118     -66.767      22.707
  O      -45.215     -65.693      22.923
  C      -45.413     -68.105      22.947
  O      -44.247     -68.223      22.101
  C      -44.895     -68.295      24.365
  O      -45.936     -68.622      25.271
  C      -43.887     -69.421      24.169
  O      -44.541     -70.702      24.160
  C      -43.313     -69.094      22.776
  N      -41.981     -68.501      22.841
  C      -40.948     -69.238      22.275
  O      -41.104     -70.359      21.792
  N      -39.709     -68.657      22.313
  C      -39.399     -67.468      22.910
  O      -38.265     -67.008      22.928
  C      -40.518     -66.774      23.563
  C      -41.736     -67.316      23.504
  O      -45.861     -64.878      20.659
  O      -46.367     -63.349      22.635
  H      -45.258     -70.645      23.498
  H      -46.835     -64.849      20.608
  H      -38.951     -69.161      21.882
  H      -40.310     -65.839      24.068
  H      -42.572     -66.814      23.981
  H      -43.260     -70.005      22.167
  H      -43.134     -69.451      24.963
  H      -44.365     -67.394      24.694
  H      -46.110     -68.911      22.680
  H      -46.478     -66.733      21.675
  H      -46.973     -66.655      23.381
  P      -46.053     -67.716      26.592
  C      -45.725     -65.146      26.944
  O      -46.048     -66.202      26.066
  O      -44.606     -67.937      27.241
  O      -47.196     -68.105      27.469
  H      -43.915     -68.050      26.566
  H      -44.987     -65.454      27.690
  H      -46.633     -64.806      27.450
  H      -45.312     -64.318      26.362
  H      -42.165     -63.922      20.703
  H      -43.591     -64.480      19.861
  H      -42.911     -65.436      21.155

 3  4  5  6  7  8  9  10  11  12  13  23  28  29  30  31  32 0
 6-311+G(2d,p)
 ****
 33  34 0
 6-311+G(2d,p)
 ****
 1  2  14  15  16  17  18  19  20  21  22  24  25  26 0
 3-21G
 ****
 27  35  36  37  38  39  40  41  42  43  44  45 0
 3-21G
 ****


