%nproc=1
%NoSave
%Mem=1900MB
#P OB98/GEN NMR

erre ene a

0 1
  C      741.041    -293.036     264.658
  O      740.076    -293.032     263.618
  H      740.711    -292.334     265.437
  H      742.016    -292.696     264.285
  H      741.128    -294.032     265.094
  P      740.401    -293.862     262.285
  C      737.922    -293.333     261.765
  O      739.237    -293.481     261.249
  C      737.375    -291.952     261.418
  O      737.619    -291.651     260.031
  C      735.875    -291.834     261.622
  O      735.547    -291.704     262.991
  C      735.564    -290.609     260.773
  O      735.887    -289.395     261.452
  C      736.517    -290.828     259.562
  N      735.857    -291.435     258.419
  C      734.935    -290.630     257.739
  O      734.720    -289.478     258.114
  N      734.258    -291.176     256.664
  C      734.496    -292.395     256.301
  N      733.797    -292.865     255.234
  C      735.470    -293.280     256.979
  C      736.110    -292.736     258.021
  O      740.626    -295.336     262.439
  O      741.688    -293.112     261.684
  H      735.805    -288.683     260.792
  H      742.507    -293.505     262.038
  H      735.630    -294.285     256.628
  H      736.836    -293.322     258.574
  H      736.955    -289.870     259.237
  H      734.518    -290.570     260.488
  H      735.362    -292.697     261.171
  H      737.913    -291.195     262.022
  H      733.132    -292.235     254.806
  H      737.985    -293.446     262.851
  H      733.950    -293.768     254.809
  H      737.259    -294.102     261.365
  P      734.246    -292.444     263.590
  C      735.512    -291.999     265.793
  O      734.242    -292.067     265.152
  O      734.141    -293.908     263.272
  O      733.034    -291.570     262.996
  H      732.891    -291.748     262.044
  H      735.378    -291.741     266.823
  H      736.114    -291.255     265.314
  H      735.998    -292.950     265.723

 6  7  8  9  10  11  12  13  14  15  16  26  30  31  32  33  35 0
 6-311+G(2d,p)
 ****
 37  38 0
 6-311+G(2d,p)
 ****
 1  2  3  4  5  17  18  19  20  21  22  23  24  25 0
 3-21G
 ****
 27  28  29  34  36  39  40  41  42  43  44  45  46 0
 3-21G
 ****


