%nproc=1
%NoSave
%Mem=1900MB
#P OB98/GEN NMR

erre ene a

0 1
  C        0.405    -150.895    -212.249
  O       -0.758    -151.490    -212.790
  H        1.101    -151.685    -211.958
  H        0.147    -150.310    -211.363
  H        0.886    -150.252    -212.992
  P       -1.841    -150.504    -213.438
  C       -3.522    -152.511    -213.222
  O       -3.292    -151.111    -213.111
  C       -4.771    -152.899    -212.429
  O       -4.565    -152.724    -211.014
  C       -5.982    -152.032    -212.731
  O       -6.530    -152.277    -214.006
  C       -6.895    -152.430    -211.579
  O       -7.535    -153.687    -211.836
  C       -5.880    -152.560    -210.417
  N       -5.921    -151.421    -209.508
  C       -6.751    -151.563    -208.390
  O       -7.386    -152.605    -208.215
  N       -6.867    -150.509    -207.517
  C       -6.192    -149.422    -207.725
  N       -6.359    -148.411    -206.829
  C       -5.288    -149.239    -208.876
  C       -5.203    -150.268    -209.719
  O       -1.683    -150.793    -215.004
  O       -1.703    -149.066    -213.057
  H       -8.167    -153.828    -211.103
  H       -1.760    -151.734    -215.236
  H       -4.738    -148.317    -209.004
  H       -4.561    -150.217    -210.592
  H       -6.078    -153.468    -209.831
  H       -7.688    -151.697    -211.411
  H       -5.730    -150.971    -212.606
  H       -4.978    -153.959    -212.620
  H       -7.006    -148.564    -206.064
  H       -2.654    -153.078    -212.873
  H       -5.914    -147.510    -206.908
  H       -3.663    -152.739    -214.282
  P       -7.163    -151.080    -214.866
  C       -7.949    -152.690    -216.717
  O       -8.343    -151.733    -215.739
  O       -6.183    -150.275    -215.648
  O       -7.977    -150.237    -213.774
  H       -8.678    -150.732    -213.315
  H       -8.815    -153.052    -217.231
  H       -7.452    -153.507    -216.237
  H       -7.284    -152.230    -217.418

 6  7  8  9  10  11  12  13  14  15  16  26  30  31  32  33  35 0
 6-311+G(2d,p)
 ****
 37  38 0
 6-311+G(2d,p)
 ****
 1  2  3  4  5  17  18  19  20  21  22  23  24  25 0
 3-21G
 ****
 27  28  29  34  36  39  40  41  42  43  44  45  46 0
 3-21G
 ****


