%nproc=1
%NoSave
%Mem=1900MB
#P OB98/GEN NMR

erre ene a

0 1
  C      883.598    -525.645    -890.120
  O      884.431    -526.654    -889.580
  H      883.898    -524.680    -889.690
  H      882.559    -525.839    -889.860
  H      883.711    -525.599    -891.210
  P      884.220    -528.145    -890.150
  C      886.165    -527.805    -891.820
  O      884.793    -528.148    -891.650
  C      886.602    -528.125    -893.260
  O      886.546    -529.580    -893.470
  C      885.726    -527.473    -894.350
  O      886.585    -527.130    -895.460
  C      884.828    -528.606    -894.790
  O      884.274    -528.417    -896.090
  C      885.801    -529.788    -894.690
  N      883.923    -533.413    -897.620
  C      884.612    -532.263    -897.940
  N      884.837    -532.053    -899.270
  N      885.050    -531.411    -897.070
  C      884.776    -531.772    -895.790
  C      884.100    -532.875    -895.330
  C      883.606    -533.813    -896.320
  O      882.967    -534.826    -896.100
  N      884.019    -532.870    -893.970
  C      884.640    -531.772    -893.590
  N      885.121    -531.063    -894.660
  O      882.634    -528.226    -890.340
  O      884.728    -529.249    -889.260
  H      883.793    -529.236    -896.320
  H      882.215    -528.608    -889.550
  H      883.602    -534.047    -898.340
  H      884.765    -531.427    -892.570
  H      886.510    -529.814    -895.520
  H      883.996    -528.731    -894.080
  H      884.580    -532.689    -900.000
  H      885.181    -526.589    -894.020
  H      885.380    -531.225    -899.530
  H      887.650    -527.832    -893.370
  H      886.774    -528.392    -891.130
  H      886.307    -526.748    -891.620
  P      887.377    -525.734    -895.380
  C      889.471    -526.999    -894.510
  O      888.574    -525.906    -894.350
  O      886.349    -524.780    -894.600
  O      887.734    -525.170    -896.720
  H      886.492    -523.858    -894.860
  H      890.212    -526.968    -893.739
  H      889.947    -526.932    -895.466
  H      888.928    -527.919    -894.446

 6  7  8  9  10  11  12  13  14  15  26  29  33  34 0
 6-311+G(2d,p)
 ****
 36  38  39  40  41 0
 6-311+G(2d,p)
 ****
 1  2  3  4  5  16  17  18  19  20  21  22  23  24  25 0
 3-21G
 ****
 27  28  30  31  32  35  37  42  43  44  45  46  47 0
 3-21G
 ****
 48  49 0
 3-21G
 ****


