%nproc=1
%NoSave
%Mem=1900MB
#P OB98/GEN NMR

erre ene a

0 1
  C      143.140     -93.342     -17.074
  O      142.579     -94.113     -18.119
  H      142.833     -92.302     -17.200
  H      144.229     -93.398     -17.114
  H      142.786     -93.699     -16.100
  P      142.704     -95.708     -18.010
  C      140.222     -96.144     -17.351
  O      141.244     -96.305     -18.328
  C      138.848     -96.339     -17.997
  O      138.571     -95.183     -18.848
  C      138.742     -97.590     -18.880
  O      137.419     -98.130     -18.743
  C      138.909     -97.042     -20.286
  O      138.349     -97.865     -21.301
  C      138.203     -95.686     -20.146
  N      138.585     -94.744     -21.203
  C      137.934     -94.858     -22.431
  O      137.009     -95.635     -22.666
  N      138.397     -94.026     -23.420
  C      139.425     -93.134     -23.314
  O      139.808     -92.431     -24.249
  C      140.079     -93.066     -21.998
  C      139.637     -93.861     -21.022
  O      142.866     -95.948     -16.436
  O      143.811     -96.327     -18.799
  H      143.811     -95.930     -16.181
  H      138.514     -97.419     -22.162
  H      137.936     -94.097     -24.317
  H      140.904     -92.378     -21.880
  H      140.112     -93.853     -20.039
  H      137.115     -95.818     -20.157
  H      139.977     -96.903     -20.511
  H      139.482     -98.366     -18.650
  H      138.086     -96.346     -17.208
  H      140.283     -95.140     -16.926
  H      140.372     -96.876     -16.549
  P      137.264     -99.728     -18.787
  C      134.882    -100.175     -19.799
  O      136.285    -100.032     -20.021
  O      136.362     -99.989     -17.486
  O      138.576    -100.445     -18.805
  H      135.713     -99.274     -17.330
  H      134.392    -100.373     -20.729
  H      134.494     -99.272     -19.377
  H      134.709    -100.987     -19.124

 6  7  8  9  10  11  12  13  14  15  16  27  31  32  33  34  35 0
 6-311+G(2d,p)
 ****
 36  37 0
 6-311+G(2d,p)
 ****
 1  2  3  4  5  17  18  19  20  21  22  23  24  25 0
 3-21G
 ****
 26  28  29  30  38  39  40  41  42  43  44  45 0
 3-21G
 ****


