%nproc=1
%NoSave
%Mem=1900MB
#P OB98/GEN NMR

erre ene a

0 1
  C      228.312     -18.809     530.201
  O      229.172     -17.889     530.865
  P      228.868     -17.566     532.408
  C      227.490     -15.724     533.673
  O      227.760     -16.415     532.461
  C      226.403     -14.652     533.466
  O      226.890     -13.684     532.516
  C      225.087     -15.163     532.891
  O      224.068     -14.194     533.158
  C      225.387     -15.189     531.407
  O      224.194     -15.233     530.631
  C      226.263     -13.927     531.226
  N      227.291     -14.059     530.170
  C      226.874     -14.108     528.843
  O      225.704     -14.050     528.480
  N      227.861     -14.273     527.908
  C      229.202     -14.352     528.165
  O      230.039     -14.577     527.303
  C      229.598     -14.151     529.565
  C      228.636     -14.032     530.487
  O      230.205     -16.852     532.919
  O      228.535     -18.782     533.218
  H      224.473     -15.172     529.681
  H      230.723     -17.457     533.468
  H      227.578     -14.374     526.947
  H      230.649     -14.139     529.809
  H      228.910     -13.905     531.535
  H      225.642     -13.049     530.965
  H      225.969     -16.084     531.162
  H      224.773     -16.149     533.261
  H      226.234     -14.129     534.417
  H      228.414     -15.259     534.049
  H      227.158     -16.438     534.442
  P      222.728     -14.694     533.889
  C      220.528     -15.775     533.120
  O      221.676     -15.038     532.728
  O      222.224     -13.822     534.988
  O      223.142     -16.148     534.433
  H      222.527     -16.417     535.141
  H      219.703     -15.503     532.455
  H      220.235     -15.559     534.157
  H      220.737     -16.844     533.017
  H      228.631     -18.927     529.187
  H      227.309     -18.436     530.218
  H      228.349     -19.755     530.699

 3  4  5  6  7  8  9  10  11  12  13  23  28  29  30  31  32 0
 6-311+G(2d,p)
 ****
 33  34 0
 6-311+G(2d,p)
 ****
 1  2  14  15  16  17  18  19  20  21  22  24  25  26  27 0
 3-21G
 ****
 35  36  37  38  39  40  41  42  43  44  45 0
 3-21G
 ****


