%nproc=1
%NoSave
%Mem=1900MB
#P OB98/GEN NMR

erre ene a

0 1
  C      -62.769     -12.856     197.608
  O      -62.608     -13.411     198.902
  P      -63.915     -13.632     199.801
  C      -63.249     -12.275     201.913
  O      -63.472     -13.556     201.343
  C      -61.986     -12.277     202.777
  O      -62.213     -13.074     203.970
  C      -60.756     -12.859     202.068
  O      -59.580     -12.173     202.519
  C      -60.685     -14.278     202.596
  O      -59.364     -14.809     202.492
  C      -61.177     -14.074     204.029
  N      -59.914     -18.652     205.764
  C      -59.108     -17.568     205.485
  N      -57.775     -17.761     205.604
  N      -59.565     -16.398     205.129
  C      -60.917     -16.352     205.042
  C      -61.823     -17.356     205.309
  C      -61.302     -18.649     205.691
  O      -61.961     -19.659     205.924
  N      -63.115     -16.922     205.147
  C      -62.995     -15.672     204.741
  N      -61.681     -15.293     204.629
  O      -64.242     -15.184     199.581
  O      -65.082     -12.783     199.425
  H      -59.374     -15.679     202.933
  H      -65.011     -15.280     198.989
  H      -59.515     -19.538     206.024
  H      -63.817     -15.013     204.495
  H      -60.380     -13.687     204.676
  H      -61.362     -14.923     202.025
  H      -57.358     -18.657     205.809
  H      -60.804     -12.820     200.974
  H      -57.161     -16.997     205.364
  H      -61.789     -11.250     203.111
  H      -64.105     -12.004     202.532
  H      -63.158     -11.530     201.115
  P      -58.579     -11.665     201.370
  C      -56.413     -13.066     201.725
  O      -57.102     -11.853     201.960
  O      -58.791     -10.078     201.374
  O      -58.829     -12.268     200.030
  H      -58.567      -9.704     200.501
  H      -55.520     -12.858     201.130
  H      -57.030     -13.799     201.196
  H      -56.109     -13.494     202.686
  H      -61.813     -12.771     197.135
  H      -63.215     -11.887     197.689
  H      -63.401     -13.492     197.023

 3  4  5  6  7  8  9  10  11  12  23  26  30  31 0
 6-311+G(2d,p)
 ****
 33  35  36  37  38 0
 6-311+G(2d,p)
 ****
 1  2  13  14  15  16  17  18  19  20  21  22  24  25 0
 3-21G
 ****
 27  28  29  32  34  39  40  41  42  43  44  45  46  47  48  49 0
 3-21G
 ****


