%nproc=1
%NoSave
%Mem=1900MB
#P OB98/GEN NMR

erre ene a

0 1
  C     -155.359    -234.518    -271.230
  O     -155.617    -233.202    -270.787
  H     -156.111    -234.788    -271.976
  H     -155.420    -235.226    -270.399
  H     -154.372    -234.575    -271.696
  P     -154.719    -232.607    -269.601
  C     -152.703    -232.361    -271.205
  O     -153.191    -232.905    -269.987
  C     -151.419    -231.556    -270.967
  O     -150.402    -232.441    -270.417
  C     -150.834    -230.926    -272.244
  O     -150.157    -229.725    -271.857
  C     -149.840    -231.987    -272.671
  O     -148.945    -231.496    -273.636
  C     -149.267    -232.394    -271.308
  N     -148.554    -233.662    -271.356
  C     -147.520    -233.753    -272.291
  O     -147.260    -232.801    -273.026
  N     -146.824    -234.932    -272.389
  C     -147.178    -235.950    -271.669
  N     -146.455    -237.095    -271.826
  C     -148.304    -235.911    -270.713
  C     -148.938    -234.747    -270.604
  O     -155.109    -233.018    -268.220
  O     -154.834    -231.018    -269.789
  H     -149.423    -231.029    -274.356
  H     -155.426    -230.650    -269.107
  H     -148.569    -236.795    -270.148
  H     -149.780    -234.622    -269.931
  H     -148.582    -231.622    -270.929
  H     -150.357    -232.839    -273.128
  H     -151.596    -230.707    -272.998
  H     -151.619    -230.792    -270.206
  H     -145.698    -237.078    -272.499
  H     -153.483    -231.711    -271.611
  H     -146.651    -237.954    -271.335
  H     -152.504    -233.163    -271.924
  P     -150.700    -228.261    -272.231
  C     -152.256    -227.995    -270.189
  O     -152.163    -228.065    -271.610
  O     -150.603    -227.929    -273.682
  O     -149.795    -227.252    -271.369
  H     -149.700    -226.411    -271.856
  H     -153.279    -227.864    -269.905
  H     -151.678    -227.167    -269.834
  H     -151.880    -228.901    -269.762

 6  7  8  9  10  11  12  13  14  15  16  26  30  31  32  33  35 0
 6-311+G(2d,p)
 ****
 37  38 0
 6-311+G(2d,p)
 ****
 1  2  3  4  5  17  18  19  20  21  22  23  24  25 0
 3-21G
 ****
 27  28  29  34  36  39  40  41  42  43  44  45  46 0
 3-21G
 ****


