%nproc=1
%NoSave
%Mem=1900MB
#P OB98/GEN NMR

erre ene a

0 1
  C      224.231     873.534     399.413
  O      223.567     873.669     400.658
  H      223.621     872.900     398.762
  H      225.201     873.057     399.565
  H      224.360     874.509     398.942
  P      224.290     874.600     401.747
  C      226.285     873.182     402.634
  O      225.838     874.181     401.737
  C      227.816     873.214     402.740
  O      228.207     874.335     403.593
  C      228.425     871.945     403.364
  O      229.742     871.741     402.814
  C      228.557     872.357     404.824
  O      229.419     871.476     405.510
  C      229.026     873.793     404.652
  N      230.601     874.313     409.473
  C      230.975     873.456     408.489
  N      230.503     873.389     407.223
  C      229.587     874.350     407.018
  C      229.108     875.273     407.916
  C      229.654     875.229     409.208
  N      229.264     876.071     410.224
  N      228.131     876.074     407.324
  C      228.038     875.629     406.093
  N      228.895     874.579     405.858
  O      223.754     874.014     403.142
  O      224.035     876.062     401.620
  H      230.216     871.278     404.982
  H      222.960     874.505     403.424
  H      231.738     872.742     408.746
  H      227.364     876.010     405.331
  H      230.068     873.858     404.326
  H      227.586     872.315     405.335
  H      227.811     871.046     403.206
  H      228.244     873.406     401.743
  H      225.964     872.206     402.266
  H      225.854     873.354     403.621
  H      229.684     875.955     411.128
  H      228.530     876.745     410.053
  P      229.886     871.457     401.247
  C      229.160     868.954     401.223
  O      228.896     870.281     400.786
  O      231.326     870.750     401.167
  O      229.867     872.672     400.366
  H      231.844     871.126     400.440
  H      228.414     868.295     400.832
  H      229.141     868.920     402.292
  H      230.124     868.649     400.874

 6  7  8  9  10  11  12  13  14  15  25  28  32  33  34  35 0
 6-311+G(2d,p)
 ****
 36  37  40 0
 6-311+G(2d,p)
 ****
 1  2  3  4  5  16  17  18  19  20  21  22  23  24 0
 3-21G
 ****
 26  27  29  30  31  38  39 41  42  43  44  45  46  47  48 0
 3-21G
 ****


