%nproc=1
%NoSave
%Mem=1900MB
#P OB98/GEN NMR

erre ene a

0 1
  C      148.881    -899.350      -2.773
  O      147.953    -899.680      -1.757
  H      149.819    -899.850      -2.539
  H      149.046    -898.280      -2.797
  H      148.526    -899.720      -3.736
  P      146.483    -899.030      -1.815
  C      147.179    -896.890      -0.549
  O      146.681    -897.450      -1.761
  C      147.150    -895.370      -0.598
  O      145.755    -894.960      -0.775
  C      147.675    -894.700       0.698
  O      148.693    -893.730       0.453
  C      146.397    -894.250       1.402
  O      146.582    -893.160       2.278
  C      145.436    -893.990       0.240
  N      144.026    -894.090       0.607
  C      143.447    -893.000       1.249
  O      144.028    -891.940       1.501
  N      142.125    -893.130       1.583
  C      141.348    -894.240       1.372
  O      140.168    -894.310       1.706
  C      142.019    -895.370       0.725
  C      143.302    -895.250       0.378
  O      145.506    -899.570      -0.831
  O      146.015    -899.290      -3.322
  H      146.937    -892.430       1.745
  H      145.349    -900.000      -3.334
  H      141.697    -892.340       2.027
  H      141.445    -896.270       0.552
  H      143.828    -896.080      -0.103
  H      145.589    -892.990      -0.181
  H      146.018    -895.090       2.004
  H      148.180    -895.450       1.316
  H      147.703    -895.020      -1.481
  H      148.214    -897.250      -0.414
  H      146.579    -897.250       0.296
  P      150.262    -894.040       0.423
  C      151.110    -893.160       2.752
  O      150.753    -894.260       1.936
  O      151.078    -893.140      -0.431
  O      150.351    -895.520      -0.206
  H      151.186    -895.550      -0.696
  H      151.407    -893.514       3.717
  H      150.270    -892.505       2.855
  H      151.923    -892.630       2.301

 6  7  8  9  10  11  12  13  14  15  16  26  31  32  33  34  35 0
 6-311+G(2d,p)
 ****
 36  37 0
 6-311+G(2d,p)
 ****
 1  2  3  4  5  17  18  19  20  21  22  23  24  25 0
 3-21G
 ****
 27  28  29  30  38  39  40  41  42  43  44  45 0
 3-21G
 ****


