%nproc=1
%NoSave
%Mem=1900MB
#P OB98/GEN NMR

erre ene a

0 1
  C      523.125      72.569    -164.923
  O      523.732      71.714    -165.896
  P      523.279      70.170    -165.846
  C      522.730      70.090    -168.376
  O      523.498      69.547    -167.312
  C      523.350      69.726    -169.729
  O      524.504      70.569    -170.017
  C      523.817      68.256    -169.822
  O      523.575      67.833    -171.185
  C      525.303      68.384    -169.558
  O      526.057      67.240    -169.936
  C      525.600      69.672    -170.324
  N      529.921      71.641    -172.215
  C      528.835      71.097    -172.819
  N      527.726      70.594    -172.237
  C      527.803      70.679    -170.893
  C      528.848      71.202    -170.144
  C      529.960      71.697    -170.858
  N      531.072      72.222    -170.261
  N      528.566      71.096    -168.786
  C      527.407      70.461    -168.735
  N      526.867      70.269    -169.984
  O      521.688      70.244    -165.691
  O      523.924      69.391    -164.733
  H      525.939      67.088    -170.898
  H      521.427      70.120    -164.760
  H      528.864      71.072    -173.896
  H      526.919      70.125    -167.832
  H      525.605      69.510    -171.409
  H      525.466      68.534    -168.479
  H      523.295      67.580    -169.144
  H      522.605      69.931    -170.512
  H      522.675      71.174    -168.286
  H      531.816      72.546    -170.854
  H      531.140      72.277    -169.248
  H      521.693      69.720    -168.296
  P      522.536      66.641    -171.438
  C      521.539      67.866    -173.470
  O      522.232      66.714    -173.023
  O      521.195      67.296    -170.837
  O      522.887      65.314    -170.862
  H      521.044      68.194    -171.189
  H      521.482      67.828    -174.556
  H      522.082      68.774    -173.180
  H      520.526      67.881    -173.050
  H      523.494      73.566    -165.045
  H      523.364      72.218    -163.941
  H      522.063      72.563    -165.056

 3  4  5  6  7  8  9  10  11  12  22  25  29  30  31  32 0
 6-311+G(2d,p)
 ****
 33  36  37 0
 6-311+G(2d,p)
 ****
 1  2  13  14  15  16  17  18  19  20  21  23  24  26 0
 3-21G
 ****
 27  28  34  35  38  39  40  41  42  43  44  45  46  47  48 0
 3-21G
 ****


