%nproc=1
%NoSave
%Mem=1900MB
#P OB98/GEN NMR

erre ene a

0 1
  C     -336.369     510.450     788.350
  O     -335.208     509.867     788.910
  H     -336.323     510.342     787.264
  H     -336.406     511.515     788.599
  H     -337.264     509.946     788.725
  P     -335.146     509.759     790.507
  C     -333.973     508.154     792.223
  O     -334.260     508.467     790.863
  C     -333.560     506.684     792.336
  O     -334.658     505.806     792.027
  C     -332.478     506.268     791.360
  O     -331.212     506.804     791.681
  C     -332.553     504.751     791.490
  O     -331.876     504.300     792.674
  C     -334.087     504.534     791.616
  N     -334.681     504.045     790.379
  C     -334.326     502.739     790.007
  O     -333.565     502.076     790.713
  N     -334.820     502.232     788.834
  C     -335.613     502.948     788.102
  N     -336.067     502.398     786.945
  C     -336.035     504.319     788.465
  C     -335.534     504.802     789.604
  O     -336.627     509.286     790.885
  O     -334.689     510.998     791.210
  H     -330.920     504.426     792.506
  H     -336.914     508.490     790.408
  H     -336.712     504.882     787.835
  H     -335.786     505.799     789.946
  H     -334.304     503.814     792.412
  H     -332.090     504.247     790.640
  H     -332.770     506.533     790.333
  H     -333.260     506.493     793.379
  H     -335.740     501.463     786.715
  H     -334.836     508.362     792.861
  H     -336.667     502.870     786.279
  H     -333.157     508.800     792.550
  P     -330.106     507.029     790.544
  C     -327.809     508.195     790.503
  O     -329.108     508.153     791.097
  O     -330.649     507.294     789.177
  O     -329.212     505.704     790.637
  H     -328.783     505.567     791.504
  H     -327.237     508.981     790.951
  H     -327.903     508.376     789.453
  H     -327.314     507.259     790.661

 6  7  8  9  10  11  12  13  14  15  16  26  30  31  32  33  35 0
 6-311+G(2d,p)
 ****
 37  38 0
 6-311+G(2d,p)
 ****
 1  2  3  4  5  17  18  19  20  21  22  23  24  25 0
 3-21G
 ****
 27  28  29  34  36  39  40  41  42  43  44  45  46 0
 3-21G
 ****


