%nproc=1
%NoSave
%Mem=1900MB
#P OB98/GEN NMR

erre ene a

0 1
  C      -31.463     121.792    -145.497
  O      -30.809     120.683    -144.913
  H      -31.059     122.707    -145.055
  H      -32.537     121.750    -145.290
  H      -31.295     121.818    -146.577
  P      -31.108     119.214    -145.494
  C      -32.951     117.431    -145.202
  O      -32.475     118.715    -144.820
  C      -33.484     116.687    -143.974
  O      -32.396     116.354    -143.083
  C      -34.468     117.501    -143.144
  O      -35.740     117.548    -143.757
  C      -34.424     116.744    -141.825
  O      -35.254     115.574    -141.878
  C      -32.927     116.358    -141.738
  N      -32.158     117.249    -140.868
  C      -32.469     117.209    -139.510
  O      -33.360     116.499    -139.039
  N      -31.736     118.044    -138.708
  C      -30.830     118.972    -139.130
  O      -30.262     119.758    -138.378
  C      -30.558     118.989    -140.577
  C      -31.225     118.138    -141.367
  O      -29.976     118.247    -145.419
  O      -31.541     119.492    -147.012
  H      -35.176     115.144    -141.006
  H      -30.808     119.245    -147.607
  H      -31.953     118.039    -137.723
  H      -29.835     119.701    -140.950
  H      -31.044     118.138    -142.435
  H      -32.823     115.331    -141.359
  H      -34.770     117.349    -140.988
  H      -34.077     118.515    -142.982
  H      -33.940     115.745    -144.316
  H      -32.120     116.860    -145.640
  H      -33.736     117.550    -145.955
  P      -36.572     118.918    -143.767
  C      -37.721     120.457    -142.054
  O      -37.010     119.235    -142.256
  O      -37.678     118.986    -144.773
  O      -35.467     120.035    -144.069
  H      -35.688     120.500    -144.899
  H      -37.960     120.563    -141.016
  H      -38.624     120.444    -142.628
  H      -37.112     121.280    -142.366

 6  7  8  9  10  11  12  13  14  15  16  26  31  32  33  34  35 0
 6-311+G(2d,p)
 ****
 36  37 0
 6-311+G(2d,p)
 ****
 1  2  3  4  5  17  18  19  20  21  22  23  24  25 0
 3-21G
 ****
 27  28  29  30  38  39  40  41  42  43  44  45 0
 3-21G
 ****


