%nproc=1
%NoSave
%Mem=1900MB
#P OB98/GEN NMR

erre ene a

0 1
  C     -286.062     340.122    -127.314
  O     -286.118     338.692    -127.383
  P     -284.810     337.873    -127.813
  C     -283.622     337.143    -129.972
  O     -284.651     337.945    -129.408
  C     -283.837     336.887    -131.472
  O     -284.943     335.970    -131.685
  C     -284.123     338.154    -132.291
  O     -283.500     337.973    -133.569
  C     -285.631     338.115    -132.421
  O     -286.108     338.936    -133.478
  C     -285.862     336.609    -132.595
  N     -287.234     336.218    -132.335
  C     -288.094     336.124    -133.433
  O     -287.702     336.461    -134.551
  N     -289.373     335.673    -133.230
  C     -289.804     335.483    -132.021
  N     -291.073     335.023    -131.857
  C     -288.981     335.757    -130.822
  C     -287.715     336.094    -131.051
  O     -284.684     336.508    -127.223
  O     -283.617     338.827    -127.300
  H     -287.077     338.808    -133.574
  H     -282.875     338.270    -127.002
  H     -289.405     335.673    -129.833
  H     -287.031     336.299    -130.242
  H     -285.593     336.293    -133.613
  H     -286.092     338.467    -131.491
  H     -283.738     339.071    -131.836
  H     -282.928     336.397    -131.856
  H     -291.637     334.868    -132.688
  H     -283.584     336.183    -129.444
  H     -291.463     334.806    -130.945
  H     -282.655     337.629    -129.789
  P     -282.287     338.937    -133.988
  C     -282.114     341.261    -135.144
  O     -282.900     340.361    -134.390
  O     -281.876     338.340    -135.424
  O     -281.098     338.930    -133.077
  H     -280.941     338.557    -135.601
  H     -282.767     342.037    -135.553
  H     -281.614     340.750    -135.972
  H     -281.363     341.728    -134.502
  H     -287.016     340.502    -127.013
  H     -285.808     340.516    -128.276
  H     -285.320     340.416    -126.601

 3  4  5  6  7  8  9  10  11  12  13  23  27  28  29  30  32 0
 6-311+G(2d,p)
 ****
 34  35 0
 6-311+G(2d,p)
 ****
 1  2  14  15  16  17  18  19  20  21  22  24  25  26 0
 3-21G
 ****
 31  33  36  37  38  39  40  41  42  43  44  45  46 0
 3-21G
 ****


