%nproc=1
%NoSave
%Mem=1900MB
#P OB98/GEN NMR

erre ene a

0 1
  C      -29.497     211.344      66.514
  O      -30.392     211.845      67.484
  H      -28.517     211.203      66.978
  H      -29.396     212.054      65.688
  H      -29.850     210.382      66.137
  P      -31.883     212.179      66.991
  C      -31.905     214.721      67.528
  O      -31.878     213.715      66.526
  C      -32.880     215.822      67.124
  O      -32.950     216.823      68.165
  C      -32.481     216.574      65.863
  O      -32.784     215.848      64.685
  C      -33.310     217.840      66.007
  O      -34.651     217.647      65.524
  C      -33.301     218.072      67.534
  N      -32.397     219.152      67.919
  C      -32.464     220.302      67.138
  O      -33.225     220.423      66.177
  N      -31.593     221.302      67.471
  C      -30.658     221.252      68.464
  O      -29.855     222.159      68.665
  C      -30.644     220.018      69.266
  C      -31.494     219.036      68.957
  O      -32.719     212.196      68.355
  O      -32.448     211.225      65.995
  H      -33.228     211.368      68.444
  H      -35.045     218.539      65.453
  H      -31.618     222.140      66.909
  H      -29.918     219.948      70.068
  H      -31.487     218.108      69.523
  H      -34.306     218.332      67.887
  H      -32.885     218.666      65.438
  H      -31.418     216.844      65.902
  H      -33.878     215.375      67.008
  H      -30.904     215.154      67.638
  H      -32.198     214.269      68.480
  P      -31.830     216.029      63.407
  C      -33.117     218.151      62.543
  O      -31.905     217.579      62.997
  O      -32.682     215.285      62.278
  O      -30.451     215.501      63.608
  H      -33.642     215.405      62.385
  H      -32.962     219.186      62.322
  H      -33.863     218.057      63.304
  H      -33.443     217.642      61.660

 6  7  8  9  10  11  12  13  14  15  16  27  31  32  33  34  35 0
 6-311+G(2d,p)
 ****
 36  37 0
 6-311+G(2d,p)
 ****
 1  2  3  4  5  17  18  19  20  21  22  23  24  25 0
 3-21G
 ****
 26  28  29  30  38  39  40  41  42  43  44  45 0
 3-21G
 ****


