%nproc=1
%NoSave
%Mem=1900MB
#P OB98/GEN NMR

erre ene a

0 1
  C       44.662     207.700      24.662
  O       44.402     207.228      25.973
  P       43.820     208.200      27.114
  C       41.449     207.168      27.197
  O       42.244     208.285      26.834
  C       40.313     207.604      28.125
  O       40.880     208.360      29.229
  C       39.253     208.489      27.455
  O       37.991     208.160      28.048
  C       39.681     209.887      27.850
  O       38.618     210.827      27.776
  C       40.216     209.637      29.265
  N       41.122     210.688      29.715
  C       40.609     211.979      29.838
  O       39.438     212.225      29.553
  N       41.440     212.977      30.285
  C       42.693     212.724      30.507
  N       43.460     213.731      31.005
  C       43.300     211.399      30.285
  C       42.460     210.436      29.915
  O       44.506     209.516      27.224
  O       43.875     207.319      28.445
  H       38.037     210.694      28.549
  H       44.755     207.355      28.895
  H       44.356     211.246      30.455
  H       42.812     209.426      29.753
  H       39.384     209.540      29.971
  H       40.478     210.229      27.182
  H       39.195     208.334      26.374
  H       39.850     206.705      28.549
  H       42.972     214.568      31.307
  H       42.083     206.452      27.727
  H       44.325     213.534      31.498
  H       41.058     206.684      26.296
  P       36.654     208.464      27.211
  C       36.283     206.217      25.971
  O       36.684     207.567      25.884
  O       36.966     209.929      26.628
  O       35.378     208.488      27.984
  H       36.124     210.387      26.455
  H       36.360     205.765      24.978
  H       35.244     206.146      26.305
  H       36.932     205.666      26.656
  H       45.042     206.899      24.063
  H       45.384     208.488      24.703
  H       43.756     208.069      24.230

 3  4  5  6  7  8  9  10  11  12  13  23  27  28  29  30  32 0
 6-311+G(2d,p)
 ****
 34  35 0
 6-311+G(2d,p)
 ****
 1  2  14  15  16  17  18  19  20  21  22  24  25  26 0
 3-21G
 ****
 31  33  36  37  38  39  40  41  42  43  44  45  46 0
 3-21G
 ****


