%nproc=1
%NoSave
%Mem=1900MB
#P OB98/GEN NMR

erre ene a

0 1
  C     -178.748    -498.178    -435.262
  O     -179.035    -496.887    -434.777
  H     -179.592    -498.512    -435.874
  H     -178.627    -498.882    -434.432
  H     -177.849    -498.170    -435.881
  P     -177.981    -496.158    -433.805
  C     -178.862    -496.655    -431.443
  O     -177.952    -497.052    -432.463
  C     -178.552    -497.368    -430.127
  O     -178.853    -498.783    -430.256
  C     -177.084    -497.253    -429.684
  O     -177.022    -496.903    -428.295
  C     -176.538    -498.660    -429.874
  O     -175.410    -498.940    -429.049
  C     -177.794    -499.494    -429.592
  N     -177.657    -500.864    -430.067
  C     -177.227    -501.808    -429.122
  O     -176.990    -501.455    -427.960
  N     -177.018    -503.101    -429.522
  C     -177.179    -503.419    -430.772
  N     -176.933    -504.716    -431.103
  C     -177.604    -502.452    -431.814
  C     -177.833    -501.208    -431.386
  O     -178.233    -494.700    -433.585
  O     -176.549    -496.457    -434.457
  H     -175.607    -498.644    -428.134
  H     -175.910    -495.776    -434.143
  H     -177.718    -502.772    -432.833
  H     -178.145    -500.433    -432.077
  H     -178.019    -499.518    -428.516
  H     -176.233    -498.789    -430.923
  H     -176.516    -496.525    -430.264
  H     -179.227    -496.982    -429.350
  H     -176.629    -505.344    -430.372
  H     -179.878    -496.879    -431.771
  H     -176.995    -505.071    -432.052
  H     -178.758    -495.575    -431.291
  P     -176.996    -495.328    -427.967
  C     -174.406    -495.231    -428.221
  O     -175.666    -494.705    -428.629
  O     -176.700    -495.284    -426.396
  O     -178.266    -494.625    -428.314
  H     -177.494    -494.981    -425.915
  H     -173.622    -494.723    -428.742
  H     -174.366    -496.276    -428.447
  H     -174.285    -495.089    -427.167

 6  7  8  9  10  11  12  13  14  15  16  26  30  31  32  33  35 0
 6-311+G(2d,p)
 ****
 37  38 0
 6-311+G(2d,p)
 ****
 1  2  3  4  5  17  18  19  20  21  22  23  24  25 0
 3-21G
 ****
 27  28  29  34  36  39  40  41  42  43  44  45  46 0
 3-21G
 ****


