%nproc=1
%NoSave
%Mem=1900MB
#P OB98/GEN NMR

erre ene a

0 1
  C     -417.279    -845.285    -134.130
  O     -416.477    -844.931    -135.242
  H     -418.220    -845.709    -134.497
  H     -417.504    -844.395    -133.535
  H     -416.778    -846.034    -133.508
  P     -414.986    -844.414    -134.984
  C     -414.167    -845.332    -137.256
  O     -414.310    -844.185    -136.428
  C     -414.094    -844.914    -138.715
  O     -415.340    -844.315    -139.137
  C     -413.014    -843.877    -139.016
  O     -411.724    -844.479    -139.030
  C     -413.497    -843.353    -140.359
  O     -413.142    -844.245    -141.425
  C     -415.031    -843.332    -140.158
  N     -415.539    -841.999    -139.781
  C     -415.999    -841.220    -140.827
  O     -416.001    -841.576    -142.008
  N     -416.447    -839.959    -140.486
  C     -416.381    -839.407    -139.238
  O     -416.559    -838.215    -139.014
  C     -415.939    -840.318    -138.164
  C     -415.539    -841.548    -138.485
  O     -414.166    -845.222    -134.034
  O     -415.197    -842.913    -134.451
  H     -415.101    -842.896    -133.483
  H     -413.565    -845.100    -141.234
  H     -416.739    -839.366    -141.244
  H     -415.931    -839.933    -137.138
  H     -415.189    -842.220    -137.702
  H     -415.540    -843.658    -141.073
  H     -413.057    -842.375    -140.605
  H     -413.054    -843.074    -138.271
  H     -413.942    -845.829    -139.328
  H     -415.040    -845.986    -137.103
  H     -413.257    -845.874    -136.954
  P     -410.741    -844.340    -137.792
  C     -409.906    -846.766    -137.870
  O     -409.540    -845.399    -137.982
  O     -411.390    -844.382    -136.448
  O     -410.001    -842.922    -138.019
  H     -410.098    -842.373    -137.209
  H     -409.041    -847.380    -138.012
  H     -410.637    -847.002    -138.615
  H     -410.316    -846.947    -136.899

 6  7  8  9  10  11  12  13  14  15  16  27  31  32  33  34  35 0
 6-311+G(2d,p)
 ****
 36  37 0
 6-311+G(2d,p)
 ****
 1  2  3  4  5  17  18  19  20  21  22  23  24  25 0
 3-21G
 ****
 26  28  29  30  38  39  40  41  42  43  44  45 0
 3-21G
 ****


