%nproc=1
%NoSave
%Mem=1900MB
#P OB98/GEN NMR

erre ene a

0 1
  C     -205.819     230.449    1005.033
  O     -204.779     229.588    1004.581
  P     -205.169     228.417    1003.559
  C     -204.025     229.652    1001.531
  O     -204.095     228.502    1002.366
  C     -202.593     229.851    1001.032
  O     -201.713     230.091    1002.148
  C     -202.004     228.654    1000.304
  O     -202.507     228.554     998.969
  C     -200.510     228.950    1000.399
  O     -200.120     229.903     999.397
  C     -200.403     229.575    1001.804
  N     -199.914     228.635    1002.814
  C     -198.583     228.269    1002.731
  O     -197.824     228.690    1001.856
  N     -198.149     227.376    1003.677
  C     -198.905     226.778    1004.633
  O     -198.477     225.954    1005.432
  C     -200.327     227.185    1004.661
  C     -200.761     228.079    1003.764
  O     -206.526     229.004    1002.940
  O     -205.296     227.087    1004.219
  H     -206.540     229.972    1002.962
  H     -200.485     229.577     998.554
  H     -197.172     227.112    1003.648
  H     -200.956     226.730    1005.411
  H     -201.802     228.385    1003.768
  H     -199.732     230.434    1001.791
  H     -199.901     228.057    1000.253
  H     -202.233     227.728    1000.853
  H     -202.574     230.742    1000.391
  H     -204.335     230.530    1002.106
  H     -204.716     229.519    1000.687
  P     -201.925     227.335     998.085
  C     -204.063     225.868     998.435
  O     -203.204     226.538     997.539
  O     -201.310     226.384     999.211
  O     -200.945     227.775     997.038
  H     -201.881     226.310     999.992
  H     -205.029     225.706     997.950
  H     -204.227     226.453     999.348
  H     -203.619     224.892     998.698
  H     -205.413     231.176    1005.705
  H     -206.564     229.872    1005.540
  H     -206.261     230.945    1004.194

 3  4  5  6  7  8  9  10  11  12  13  24  28  29  30  31  32 0
 6-311+G(2d,p)
 ****
 33  34 0
 6-311+G(2d,p)
 ****
 1  2  14  15  16  17  18  19  20  21  22  23  25  26  27 0
 3-21G
 ****
 35  36  37  38  39  40  41  42  43  44  45 0
 3-21G
 ****


