%nproc=1
%NoSave
%Mem=1900MB
#P OB98/GEN NMR

erre ene a

0 1
  C      745.818     453.224     762.443
  O      745.009     453.733     763.490
  H      746.577     453.967     762.216
  H      745.209     453.065     761.546
  H      746.287     452.300     762.746
  P      743.762     452.829     763.953
  C      744.754     452.099     766.214
  O      744.418     451.692     764.897
  C      745.107     450.867     767.068
  O      743.919     450.050     767.211
  C      746.190     449.966     766.467
  O      747.002     449.422     767.533
  C      745.440     448.846     765.835
  O      746.199     447.673     765.656
  C      744.247     448.743     766.775
  N      741.630     444.358     766.386
  C      742.629     444.765     767.228
  N      743.243     445.947     767.280
  C      742.702     446.797     766.370
  C      741.715     446.540     765.471
  C      741.148     445.236     765.458
  N      740.194     444.811     764.593
  N      741.469     447.667     764.661
  C      742.338     448.580     765.114
  N      743.110     448.088     766.122
  O      742.905     452.302     762.858
  O      743.036     453.773     765.011
  H      746.898     447.874     764.995
  H      743.663     454.175     765.626
  H      742.957     444.016     767.948
  H      742.415     449.576     764.719
  H      744.500     448.106     767.671
  H      745.093     449.166     764.815
  H      746.855     450.518     765.753
  H      745.381     451.225     768.087
  H      743.965     452.651     766.678
  H      739.850     443.872     764.690
  H      739.816     445.464     763.903
  H      745.652     452.760     766.155
  P      748.596     449.324     767.317
  C      749.416     450.926     769.166
  O      749.286     450.730     767.763
  O      749.048     448.838     765.982
  O      749.092     448.329     768.492
  H      749.699     447.683     768.121
  H      749.878     451.873     769.353
  H      750.021     450.147     769.581
  H      748.447     450.906     769.620

 6  7  8  9  10  11  12  13  14  15  25  28  32  33  34  35 0
 6-311+G(2d,p)
 ****
 36  39  40 0
 6-311+G(2d,p)
 ****
 1  2  3  4  5  16  17  18  19  20  21  22  23  24 0
 3-21G
 ****
 26  27  29  30  31  37  38  41  42  43  44  45  46  47 0
 3-21G
 ****
 48 0
 3-21G
 ****


