%nproc=1
%NoSave
%Mem=1900MB
#P OB98/GEN NMR

erre ene a

0 1
  C      208.208     -75.205     -13.031
  O      208.367     -73.885     -13.583
  P      209.535     -73.624     -14.662
  C      211.731     -72.215     -14.871
  O      210.601     -72.565     -14.084
  C      212.261     -70.819     -14.500
  O      211.202     -69.813     -14.661
  C      212.778     -70.693     -13.059
  O      213.853     -69.747     -13.068
  C      211.575     -70.104     -12.332
  O      211.915     -69.491     -11.095
  C      211.060     -69.139     -13.392
  N      209.672     -68.701     -13.193
  C      209.419     -67.747     -12.203
  O      210.283     -67.282     -11.458
  N      208.111     -67.355     -12.095
  C      207.053     -67.829     -12.812
  O      205.905     -67.457     -12.643
  C      207.379     -68.861     -13.815
  C      208.650     -69.241     -13.957
  O      208.776     -72.761     -15.779
  O      210.133     -74.853     -15.275
  H      211.136     -68.997     -10.793
  H      208.996     -73.105     -16.665
  H      207.909     -66.643     -11.404
  H      206.561     -69.267     -14.409
  H      208.914     -69.993     -14.699
  H      211.712     -68.255     -13.431
  H      210.857     -70.911     -12.119
  H      213.111     -71.654     -12.635
  H      213.055     -70.556     -15.213
  H      211.444     -72.213     -15.930
  H      212.512     -72.969     -14.735
  P      215.144     -70.050     -12.143
  C      215.839     -69.375      -9.709
  O      214.832     -69.446     -10.688
  O      216.188     -69.001     -12.760
  O      215.612     -71.461     -12.186
  H      215.804     -68.122     -12.906
  H      216.800     -69.061     -10.136
  H      215.948     -70.358      -9.221
  H      215.542     -68.637      -8.949
  H      207.394     -75.205     -12.336
  H      209.107     -75.492     -12.527
  H      208.004     -75.899     -13.819

 3  4  5  6  7  8  9  10  11  12  13  23  28  29  30  31  32 0
 6-311+G(2d,p)
 ****
 33  34 0
 6-311+G(2d,p)
 ****
 1  2  14  15  16  17  18  19  20  21  22  24  25  26 0
 3-21G
 ****
 27  35  36  37  38  39  40  41  42  43  44  45 0
 3-21G
 ****


