%nproc=1
%NoSave
%Mem=1900MB
#P OB98/GEN NMR

erre ene a

0 1
  C      -61.676     -32.072      -6.997
  O      -62.036     -32.347      -8.335
  H      -62.392     -32.561      -6.332
  H      -61.700     -30.996      -6.809
  H      -60.677     -32.465      -6.790
  P      -61.170     -31.635      -9.480
  C      -63.060     -29.939     -10.031
  O      -61.715     -30.134      -9.612
  C      -63.338     -28.446     -10.172
  O      -62.995     -27.765      -8.942
  C      -62.517     -27.761     -11.255
  O      -63.034     -27.981     -12.557
  C      -62.629     -26.309     -10.826
  O      -63.834     -25.703     -11.313
  C      -62.638     -26.412      -9.290
  N      -61.356     -26.016      -8.713
  C      -61.326     -24.760      -8.115
  O      -62.302     -24.014      -8.059
  N      -60.117     -24.368      -7.610
  C      -58.951     -25.071      -7.691
  O      -57.888     -24.636      -7.267
  C      -59.039     -26.384      -8.350
  C      -60.219     -26.790      -8.828
  O      -61.681     -32.346     -10.819
  O      -59.691     -31.752      -9.314
  H      -61.001     -32.963     -11.145
  H      -63.783     -24.760     -11.058
  H      -60.075     -23.462      -7.170
  H      -58.132     -26.968      -8.433
  H      -60.307     -27.749      -9.328
  H      -63.416     -25.764      -8.867
  H      -61.796     -25.724     -11.209
  H      -61.468     -28.073     -11.189
  H      -64.411     -28.307     -10.355
  H      -63.742     -30.358      -9.285
  H      -63.216     -30.460     -10.980
  P      -62.007     -28.444     -13.700
  C      -61.372     -25.939     -14.196
  O      -60.951     -27.248     -13.847
  O      -62.939     -28.327     -14.995
  O      -61.428     -29.795     -13.456
  H      -63.641     -27.664     -14.877
  H      -60.522     -25.291     -14.242
  H      -62.057     -25.576     -13.458
  H      -61.855     -25.962     -15.150

 6  7  8  9  10  11  12  13  14  15  16  27  31  32  33  34  35 0
 6-311+G(2d,p)
 ****
 36  37 0
 6-311+G(2d,p)
 ****
 1  2  3  4  5  17  18  19  20  21  22  23  24  25 0
 3-21G
 ****
 26  28  29  30  38  39  40  41  42  43  44  45 0
 3-21G
 ****


