%nproc=1
%NoSave
%Mem=1900MB
#P OB98/GEN NMR

erre ene a

0 1
  C      512.344    -239.223      45.010
  O      512.328    -238.757      46.365
  P      512.864    -239.762      47.497
  C      514.070    -237.895      48.883
  O      513.040    -238.873      48.826
  C      513.617    -236.685      49.703
  O      512.788    -235.807      48.876
  C      512.815    -237.035      50.962
  O      513.204    -236.094      51.980
  C      511.385    -236.791      50.535
  O      510.519    -236.563      51.643
  C      511.570    -235.578      49.607
  N      510.438    -235.376      48.703
  C      509.752    -234.165      48.817
  O      510.006    -233.326      49.682
  N      508.727    -233.979      47.932
  C      508.274    -234.890      47.026
  O      507.344    -234.670      46.258
  C      508.958    -236.188      47.031
  C      509.989    -236.371      47.862
  O      514.353    -240.037      46.996
  O      512.008    -240.977      47.647
  H      514.785    -239.254      46.602
  H      510.912    -235.864      52.208
  H      508.237    -233.099      47.979
  H      508.593    -236.961      46.366
  H      510.508    -237.326      47.907
  H      511.702    -234.660      50.195
  H      511.007    -237.647      49.971
  H      512.992    -238.057      51.313
  H      514.518    -236.111      49.982
  H      514.322    -237.561      47.869
  H      514.973    -238.350      49.300
  P      514.046    -236.639      53.237
  C      515.724    -234.631      53.319
  O      514.698    -235.366      53.952
  O      515.292    -237.306      52.472
  O      513.322    -237.609      54.108
  H      515.669    -236.727      51.787
  H      515.863    -233.686      53.846
  H      515.480    -234.419      52.272
  H      516.668    -235.198      53.359
  H      511.963    -238.459      44.365
  H      511.733    -240.097      44.926
  H      513.348    -239.461      44.727

 3  4  5  6  7  8  9  10  11  12  13  24  28  29  30  31  32 0
 6-311+G(2d,p)
 ****
 33  34 0
 6-311+G(2d,p)
 ****
 1  2  14  15  16  17  18  19  20  21  22  23  25  26  27 0
 3-21G
 ****
 35  36  37  38  39  40  41  42  43  44  45 0
 3-21G
 ****


