%nproc=1
%NoSave
%Mem=1900MB
#P OB98/GEN NMR

erre ene a

0 1
  C     1019.856    -539.593     177.959
  O     1020.756    -540.543     178.493
  H     1020.329    -539.096     177.108
  H     1019.608    -538.846     178.710
  H     1018.948    -540.095     177.611
  P     1020.296    -541.317     179.816
  C     1019.747    -540.632     182.267
  O     1020.246    -540.227     180.995
  C     1020.292    -539.709     183.344
  O     1020.355    -538.350     182.843
  C     1019.418    -539.635     184.599
  O     1019.608    -540.741     185.461
  C     1019.913    -538.335     185.217
  O     1021.093    -538.542     186.011
  C     1020.224    -537.466     183.983
  N     1019.196    -536.449     183.764
  C     1019.279    -535.328     184.584
  O     1020.149    -535.182     185.438
  N     1018.288    -534.393     184.420
  C     1017.229    -534.488     183.563
  O     1016.353    -533.642     183.496
  C     1017.186    -535.705     182.730
  C     1018.148    -536.617     182.870
  O     1021.573    -542.215     180.174
  O     1019.064    -542.138     179.664
  H     1021.390    -543.147     179.962
  H     1020.839    -539.170     186.717
  H     1018.334    -533.578     184.999
  H     1016.356    -535.818     182.049
  H     1018.140    -537.531     182.283
  H     1021.189    -536.960     184.097
  H     1019.163    -537.892     185.861
  H     1018.366    -539.514     184.322
  H     1021.314    -540.034     183.606
  H     1020.067    -541.660     182.477
  H     1018.648    -540.603     182.235
  P     1018.303    -541.361     186.167
  C     1016.773    -540.430     188.106
  O     1018.038    -540.441     187.458
  O     1018.905    -542.724     186.756
  O     1017.151    -541.536     185.244
  H     1019.876    -542.648     186.933
  H     1016.804    -539.757     188.937
  H     1016.541    -541.415     188.453
  H     1016.021    -540.109     187.415

 6  7  8  9  10  11  12  13  14  15  16  27  31  32  33  34  35 0
 6-311+G(2d,p)
 ****
 36  37 0
 6-311+G(2d,p)
 ****
 1  2  3  4  5  17  18  19  20  21  22  23  24  25 0
 3-21G
 ****
 26  28  29  30  38  39  40  41  42  43  44  45 0
 3-21G
 ****


