%nproc=1
%NoSave
%Mem=1900MB
#P OB98/GEN NMR

erre ene a

0 1
  C       28.107     261.300    -100.719
  O       29.430     261.839    -100.774
  P       30.120     262.220     -99.376
  C       29.544     264.745     -99.410
  O       29.356     263.494     -98.765
  C       29.378     265.911     -98.429
  O       30.500     265.972     -97.503
  C       29.291     267.280     -99.111
  O       28.415     268.101     -98.328
  C       30.703     267.815     -98.984
  O       30.743     269.232     -99.146
  C       31.070     267.294     -97.596
  N       34.958     269.433     -95.076
  C       33.632     269.690     -95.079
  N       32.662     269.086     -95.799
  C       33.178     268.094     -96.546
  C       34.507     267.723     -96.654
  C       35.427     268.444     -95.872
  N       36.780     268.202     -95.888
  N       34.651     266.690     -97.559
  C       33.429     266.450     -97.992
  N       32.504     267.251     -97.386
  O       31.541     262.808     -99.818
  O       30.275     261.064     -98.445
  H       31.659     269.533     -98.969
  H       32.248     262.175     -99.595
  H       33.307     270.490     -94.419
  H       33.164     265.719     -98.740
  H       30.644     267.909     -96.794
  H       31.343     267.364     -99.753
  H       28.944     267.252    -100.149
  H       28.473     265.738     -97.836
  H       28.822     264.859    -100.224
  H       37.374     268.783     -95.320
  H       37.147     267.498     -96.512
  H       30.532     264.759     -99.882
  P       27.099     268.646     -99.060
  C       27.744     270.816    -100.326
  O       27.601     269.410    -100.375
  O       26.596     269.827     -98.104
  O       26.045     267.610     -99.274
  H       25.636     269.958     -98.208
  H       28.652     271.097    -100.868
  H       27.814     271.191     -99.302
  H       26.882     271.278    -100.816
  H       27.766     261.090    -101.711
  H       27.452     262.010    -100.259
  H       28.114     260.396    -100.146

 3  4  5  6  7  8  9  10  11  12  22  25  29  30  31  32 0
 6-311+G(2d,p)
 ****
 33  36  37 0
 6-311+G(2d,p)
 ****
 1  2  13  14  15  16  17  18  19  20  21  23  24  26 0
 3-21G
 ****
 27  28  34  35  38  39  40  41  42  43  44  45  46  47  48 0
 3-21G
 ****


