%nproc=1
%NoSave
%Mem=1900MB
#P OB98/GEN NMR

erre ene a

0 1
  C     -189.722     173.158    -351.620
  O     -189.317     173.810    -350.430
  H     -190.181     173.895    -352.283
  H     -190.457     172.381    -351.391
  H     -188.854     172.721    -352.122
  P     -188.591     172.899    -349.327
  C     -190.388     172.674    -347.477
  O     -189.238     173.373    -347.938
  C     -190.822     173.205    -346.113
  O     -189.780     173.011    -345.140
  C     -191.139     174.695    -346.087
  O     -192.445     174.945    -346.583
  C     -191.036     174.985    -344.600
  O     -192.246     174.567    -343.937
  C     -189.863     174.085    -344.165
  N     -186.855     177.169    -341.373
  C     -188.156     176.835    -341.250
  N     -188.902     176.043    -342.053
  C     -188.167     175.576    -343.074
  C     -186.830     175.833    -343.331
  C     -186.159     176.661    -342.418
  N     -184.825     176.993    -342.540
  N     -186.417     175.180    -344.475
  C     -187.472     174.502    -344.873
  N     -188.569     174.737    -344.079
  O     -187.102     172.869    -349.391
  O     -189.311     171.489    -349.575
  H     -192.131     174.736    -342.983
  H     -190.255     171.618    -349.772
  H     -188.671     177.257    -340.390
  H     -187.494     173.815    -345.711
  H     -190.045     173.626    -343.185
  H     -190.910     176.048    -344.391
  H     -190.377     175.275    -346.620
  H     -191.687     172.616    -345.783
  H     -190.186     171.602    -347.413
  H     -184.470     177.724    -341.943
  H     -184.343     176.715    -343.383
  H     -191.184     172.832    -348.213
  P     -192.668     175.425    -348.095
  C     -192.936     177.930    -347.567
  O     -193.582     176.745    -348.024
  O     -193.170     174.375    -349.027
  O     -191.244     175.994    -348.550
  H     -191.067     175.764    -349.481
  H     -193.637     178.739    -347.561
  H     -192.123     178.167    -348.220
  H     -192.564     177.774    -346.576

 6  7  8  9  10  11  12  13  14  15  25  28  32  33  34  35 0
 6-311+G(2d,p)
 ****
 36  39  40 0
 6-311+G(2d,p)
 ****
 1  2  3  4  5  16  17  18  19  20  21  22  23  24 0
 3-21G
 ****
 26  27  29  30  31  37  38  41  42  43  44  45  46  47 0
 3-21G
 ****
 48 0
 3-21G
 ****


