%nproc=1
%NoSave
%Mem=1900MB
#P OB98/GEN NMR

erre ene a

0 1
  C       80.588     165.003    -206.468
  O       80.133     164.496    -207.706
  H       79.838     164.793    -205.704
  H       80.725     166.085    -206.537
  H       81.530     164.527    -206.178
  P       81.174     164.486    -208.925
  C       80.463     162.149    -209.823
  O       80.534     163.548    -210.065
  C       79.102     161.613    -210.270
  O       78.107     161.988    -209.271
  C       78.625     162.162    -211.621
  O       77.916     161.123    -212.305
  C       77.646     163.251    -211.223
  O       76.690     163.564    -212.227
  C       77.021     162.633    -209.966
  N       76.370     163.628    -209.117
  C       75.248     164.274    -209.631
  O       74.720     164.010    -210.710
  N       74.730     165.271    -208.845
  C       75.219     165.688    -207.642
  O       74.720     166.603    -206.996
  C       76.410     164.974    -207.154
  C       76.921     163.995    -207.902
  O       82.384     163.607    -208.359
  O       81.615     165.828    -209.405
  H       83.034     164.174    -207.902
  H       76.314     162.714    -212.547
  H       73.916     165.750    -209.205
  H       76.833     165.285    -206.210
  H       77.813     163.462    -207.584
  H       76.301     161.856    -210.242
  H       78.191     164.172    -210.976
  H       79.430     162.544    -212.257
  H       79.143     160.516    -210.283
  H       80.590     161.959    -208.754
  H       81.268     161.647    -210.369
  P       78.192     160.956    -213.878
  C       78.118     158.335    -213.894
  O       77.515     159.560    -214.290
  O       79.763     160.655    -213.885
  O       77.772     162.144    -214.674
  H       80.054     160.131    -213.119
  H       77.532     157.516    -214.255
  H       78.171     158.292    -212.826
  H       79.105     158.275    -214.303

 6  7  8  9  10  11  12  13  14  15  16  27  31  32  33  34  35 0
 6-311+G(2d,p)
 ****
 36  37 0
 6-311+G(2d,p)
 ****
 1  2  3  4  5  17  18  19  20  21  22  23  24  25 0
 3-21G
 ****
 26  28  29  30  38  39  40  41  42  43  44  45 0
 3-21G
 ****


