%nproc=1
%NoSave
%Mem=1900MB
#P OB98/GEN NMR

erre ene a

0 1
  C      247.101     189.865     -67.907
  O      247.080     190.545     -66.670
  H      247.596     188.901     -67.768
  H      247.668     190.445     -68.639
  H      246.089     189.686     -68.278
  P      246.163     191.850     -66.519
  C      243.822     192.051     -67.580
  O      244.643     191.354     -66.653
  C      242.697     191.149     -68.096
  O      243.287     190.008     -68.784
  C      241.784     190.594     -66.991
  O      240.479     190.429     -67.558
  C      242.417     189.244     -66.718
  O      241.532     188.389     -66.028
  C      242.802     188.817     -68.137
  N      243.792     187.742     -68.146
  C      243.362     186.506     -68.610
  O      242.205     186.284     -68.969
  N      244.293     185.505     -68.608
  C      245.570     185.605     -68.138
  O      246.354     184.666     -68.130
  C      245.958     186.927     -67.618
  C      245.067     187.920     -67.648
  O      246.524     193.000     -67.398
  O      246.269     192.229     -64.967
  H      241.413     188.697     -65.105
  H      246.173     193.193     -64.851
  H      244.000     184.604     -68.951
  H      246.960     187.038     -67.229
  H      245.322     188.905     -67.274
  H      241.920     188.469     -68.690
  H      243.312     189.356     -66.097
  H      241.741     191.235     -66.108
  H      242.118     191.704     -68.844
  H      244.453     192.371     -68.415
  H      243.396     192.935     -67.096
  P      239.515     191.675     -67.859
  C      240.023     193.664     -69.415
  O      239.857     192.252     -69.317
  O      239.495     192.709     -66.781
  O      238.061     191.029     -68.049
  H      237.379     191.677     -67.799
  H      240.246     193.927     -70.428
  H      240.827     193.973     -68.780
  H      239.120     194.151     -69.110

 6  7  8  9  10  11  12  13  14  15  16  26  31  32  33  34  35 0
 6-311+G(2d,p)
 ****
 36  37 0
 6-311+G(2d,p)
 ****
 1  2  3  4  5  17  18  19  20  21  22  23  24  25 0
 3-21G
 ****
 27  28  29  30  38  39  40  41  42  43  44  45 0
 3-21G
 ****


