%nproc=1
%NoSave
%Mem=1900MB
#P OB98/GEN NMR

erre ene a

0 1
  C     -487.034     -67.261    -416.213
  O     -488.021     -67.467    -417.232
  P     -487.686     -68.536    -418.385
  C     -486.624     -66.890    -420.105
  O     -487.703     -67.784    -419.806
  C     -486.754     -66.317    -421.520
  O     -486.622     -67.374    -422.515
  C     -488.106     -65.631    -421.786
  O     -487.903     -64.582    -422.751
  C     -488.915     -66.733    -422.437
  O     -490.036     -66.211    -423.151
  C     -487.841     -67.399    -423.307
  N     -489.198     -70.386    -427.128
  C     -488.973     -69.024    -427.107
  N     -489.083     -68.362    -428.280
  N     -488.647     -68.356    -426.015
  C     -488.535     -69.164    -424.927
  C     -488.744     -70.509    -424.829
  C     -489.129     -71.235    -426.034
  O     -489.347     -72.430    -426.110
  N     -488.565     -70.964    -423.547
  C     -488.239     -69.863    -422.866
  N     -488.181     -68.754    -423.664
  O     -489.001     -69.442    -418.431
  O     -486.463     -69.366    -418.106
  H     -489.686     -65.638    -423.881
  H     -488.814     -70.316    -418.053
  H     -489.449     -70.843    -428.001
  H     -488.051     -69.826    -421.796
  H     -487.658     -66.848    -424.241
  H     -489.292     -67.427    -421.676
  H     -489.270     -68.821    -429.167
  H     -488.587     -65.214    -420.903
  H     -488.878     -67.374    -428.298
  H     -485.939     -65.602    -421.687
  H     -485.669     -67.418    -420.017
  H     -486.605     -66.091    -419.351
  P     -487.935     -63.074    -422.193
  C     -489.940     -62.611    -423.787
  O     -488.672     -62.194    -423.315
  O     -486.405     -62.597    -422.294
  O     -488.471     -62.934    -420.806
  H     -486.229     -61.879    -421.655
  H     -490.703     -61.973    -423.336
  H     -490.150     -63.660    -423.527
  H     -489.975     -62.488    -424.870
  H     -487.387     -66.529    -415.517
  H     -486.125     -66.918    -416.661
  H     -486.853     -68.182    -415.700

 3  4  5  6  7  8  9  10  11  12  23  26  30  31 0
 6-311+G(2d,p)
 ****
 33  35  36  37  38 0
 6-311+G(2d,p)
 ****
 1  2  13  14  15  16  17  18  19  20  21  22  24  25 0
 3-21G
 ****
 27  28  29  32  34  39  40  41  42  43  44  45  46  47  48  49 0
 3-21G
 ****


