%nproc=1
%NoSave
%Mem=1900MB
#P OB98/GEN NMR

erre ene a

0 1
  C      -16.373      15.842      29.960
  O      -17.536      16.641      30.004
  H      -16.459      15.144      29.124
  H      -16.270      15.271      30.886
  H      -15.491      16.469      29.808
  P      -17.642      17.702      31.203
  C      -16.371      19.583      29.940
  O      -16.391      18.694      31.048
  C      -15.705      20.892      30.347
  O      -16.381      21.452      31.495
  C      -14.249      20.745      30.765
  O      -13.380      20.628      29.654
  C      -14.042      22.034      31.543
  O      -13.729      23.131      30.670
  C      -15.415      22.239      32.219
  N      -15.384      21.899      33.638
  C      -15.137      22.957      34.507
  O      -14.952      24.113      34.126
  N      -15.071      22.638      35.835
  C      -15.186      21.385      36.362
  O      -15.044      21.155      37.556
  C      -15.461      20.308      35.398
  C      -15.537      20.607      34.099
  O      -17.278      16.827      32.493
  O      -18.965      18.378      31.334
  H      -18.090      16.605      32.983
  H      -12.990      22.828      30.106
  H      -14.882      23.389      36.479
  H      -15.565      19.301      35.784
  H      -15.718      19.826      33.367
  H      -15.731      23.286      32.130
  H      -13.217      21.948      32.250
  H      -14.135      19.897      31.450
  H      -15.798      21.603      29.514
  H      -17.397      19.789      29.618
  H      -15.831      19.110      29.114
  P      -12.011      19.813      29.835
  C      -12.370      17.511      28.623
  O      -12.402      18.258      29.824
  O      -11.669      20.119      31.366
  O      -10.949      20.199      28.863
  H      -12.460      20.177      31.928
  H      -12.662      16.501      28.823
  H      -11.378      17.523      28.222
  H      -13.046      17.944      27.915

 6  7  8  9  10  11  12  13  14  15  16  27  31  32  33  34  35 0
 6-311+G(2d,p)
 ****
 36  37 0
 6-311+G(2d,p)
 ****
 1  2  3  4  5  17  18  19  20  21  22  23  24  25 0
 3-21G
 ****
 26  28  29  30  38  39  40  41  42  43  44  45 0
 3-21G
 ****


