%nproc=1
%NoSave
%Mem=1900MB
#P OB98/GEN NMR

erre ene a

0 1
  C      371.359    -112.263     -61.714
  O      371.775    -112.743     -60.429
  P      370.752    -112.995     -59.219
  C      369.461    -115.124     -59.895
  O      370.481    -114.568     -59.071
  C      368.380    -115.820     -59.064
  O      367.303    -116.274     -59.907
  C      368.850    -117.056     -58.307
  O      369.605    -116.703     -57.163
  C      367.520    -117.743     -58.013
  O      366.894    -117.172     -56.849
  C      366.706    -117.427     -59.284
  N      366.640    -118.557     -60.199
  C      365.382    -118.873     -60.718
  O      364.385    -118.246     -60.357
  N      365.280    -119.908     -61.617
  C      366.328    -120.610     -61.911
  N      366.166    -121.619     -62.813
  C      367.654    -120.372     -61.317
  C      367.739    -119.339     -60.480
  O      369.510    -112.168     -59.295
  O      371.579    -112.634     -57.894
  H      366.160    -117.767     -56.610
  H      370.966    -112.290     -57.219
  H      368.498    -121.000     -61.566
  H      368.680    -119.086     -60.005
  H      365.683    -117.131     -59.020
  H      367.631    -118.815     -57.822
  H      369.445    -117.693     -58.976
  H      367.968    -115.079     -58.365
  H      365.245    -121.751     -63.204
  H      369.927    -115.855     -60.568
  H      366.918    -122.224     -63.110
  H      369.021    -114.324     -60.498
  P      370.902    -117.553     -56.770
  C      372.780    -116.769     -58.334
  O      372.187    -116.640     -57.053
  O      370.964    -118.933     -57.334
  O      370.853    -117.596     -55.167
  H      371.247    -118.434     -54.860
  H      373.350    -115.860     -58.550
  H      372.021    -116.909     -59.111
  H      373.462    -117.625     -58.332
  H      372.211    -112.174     -62.354
  H      370.894    -111.306     -61.604
  H      370.661    -112.951     -62.143

 3  4  5  6  7  8  9  10  11  12  13  23  27  28  29  30  32 0
 6-311+G(2d,p)
 ****
 34  35 0
 6-311+G(2d,p)
 ****
 1  2  14  15  16  17  18  19  20  21  22  24  25  26 0
 3-21G
 ****
 31  33  36  37  38  39  40  41  42  43  44  45  46 0
 3-21G
 ****


