%nproc=1
%NoSave
%Mem=1900MB
#P OB98/GEN NMR

erre ene a

0 1
  C      971.317      81.277     265.316
  O      971.407      81.546     266.701
  H      970.892      80.281     265.176
  H      972.312      81.305     264.864
  H      970.665      82.011     264.824
  P      971.783      83.041     267.139
  C      970.402      85.240     267.227
  O      970.393      83.828     267.321
  C      969.011      85.746     266.835
  O      968.692      85.236     265.507
  C      967.891      85.296     267.786
  O      966.937      86.358     267.891
  C      967.265      84.127     267.046
  O      965.920      83.862     267.427
  C      967.398      84.601     265.593
  N      967.290      83.503     264.637
  C      966.022      83.211     264.136
  O      965.007      83.862     264.381
  N      965.943      82.112     263.319
  C      966.978      81.286     262.984
  O      966.839      80.301     262.265
  C      968.289      81.637     263.550
  C      968.379      82.710     264.334
  O      972.393      83.668     265.799
  O      972.720      83.152     268.301
  H      973.353      83.517     265.757
  H      965.927      83.627     268.375
  H      965.036      81.885     262.953
  H      969.134      80.996     263.309
  H      969.332      82.987     264.787
  H      966.641      85.364     265.372
  H      967.853      83.217     267.215
  H      968.238      85.015     268.783
  H      969.042      86.842     266.764
  H      971.120      85.553     266.463
  H      970.705      85.667     268.190
  P      967.307      87.599     268.841
  C      969.439      89.097     268.571
  O      968.285      88.520     267.968
  O      968.264      86.893     269.908
  O      966.103      88.274     269.410
  H      968.819      86.187     269.520
  H      969.970      89.676     267.844
  H      970.074      88.320     268.941
  H      969.140      89.729     269.381

 6  7  8  9  10  11  12  13  14  15  16  27  31  32  33  34  35 0
 6-311+G(2d,p)
 ****
 36  37 0
 6-311+G(2d,p)
 ****
 1  2  3  4  5  17  18  19  20  21  22  23  24  25 0
 3-21G
 ****
 26  28  29  30  38  39  40  41  42  43  44  45 0
 3-21G
 ****


