%nproc=1
%NoSave
%Mem=1900MB
#P OB98/GEN NMR

erre ene a

0 1
  C      -69.509     385.137      -8.887
  O      -68.246     384.570      -8.546
  P      -67.013     384.760      -9.556
  C      -65.576     386.491      -8.297
  O      -65.711     385.132      -8.696
  C      -65.042     386.589      -6.867
  O      -66.088     386.404      -5.893
  C      -63.999     385.533      -6.544
  O      -62.758     385.842      -7.157
  C      -63.995     385.571      -5.021
  O      -63.179     386.646      -4.536
  C      -65.482     385.852      -4.704
  N      -66.204     384.680      -4.234
  C      -65.772     384.138      -3.019
  O      -64.805     384.627      -2.429
  N      -66.432     383.047      -2.510
  C      -67.429     382.537      -3.164
  N      -68.049     381.458      -2.615
  C      -67.911     383.072      -4.456
  C      -67.252     384.126      -4.931
  O      -67.272     385.644     -10.729
  O      -66.704     383.257     -10.022
  H      -63.137     386.543      -3.565
  H      -66.343     383.277     -10.930
  H      -68.750     382.613      -4.957
  H      -67.535     384.579      -5.874
  H      -65.563     386.627      -3.927
  H      -63.603     384.646      -4.591
  H      -64.349     384.552      -6.891
  H      -64.614     387.593      -6.731
  H      -67.694     381.106      -1.736
  H      -66.548     386.988      -8.368
  H      -68.864     381.023      -3.021
  H      -64.909     387.001      -9.002
  P      -61.635     384.697      -7.177
  C      -61.716     384.481      -9.759
  O      -60.927     384.734      -8.615
  O      -62.495     383.345      -7.226
  O      -60.710     384.706      -6.006
  H      -62.032     382.644      -6.728
  H      -61.179     384.848     -10.640
  H      -62.680     384.994      -9.701
  H      -61.877     383.406      -9.869
  H      -70.217     384.921      -8.114
  H      -69.850     384.718      -9.811
  H      -69.407     386.197      -8.992

 3  4  5  6  7  8  9  10  11  12  13  23  27  28  29  30  32 0
 6-311+G(2d,p)
 ****
 34  35 0
 6-311+G(2d,p)
 ****
 1  2  14  15  16  17  18  19  20  21  22  24  25  26 0
 3-21G
 ****
 31  33  36  37  38  39  40  41  42  43  44  45  46 0
 3-21G
 ****


