%nproc=1
%NoSave
%Mem=1900MB
#P OB98/GEN NMR

erre ene a

0 1
  C     -729.231     188.008     286.120
  O     -729.064     188.140     284.724
  H     -730.236     188.352     286.386
  H     -728.507     188.637     286.652
  H     -729.125     186.965     286.433
  P     -727.728     187.567     284.056
  C     -728.764     185.450     283.003
  O     -727.877     185.971     283.989
  C     -728.675     183.923     282.978
  O     -728.750     183.394     284.326
  C     -729.802     183.249     282.205
  O     -729.612     183.357     280.812
  C     -729.726     181.834     282.751
  O     -728.692     181.087     282.101
  C     -729.382     182.089     284.237
  N     -730.544     182.005     285.115
  C     -730.709     180.812     285.820
  O     -729.953     179.855     285.692
  N     -731.799     180.751     286.643
  C     -732.782     181.701     286.750
  O     -733.792     181.560     287.438
  C     -732.570     182.927     285.976
  C     -731.486     183.028     285.205
  O     -726.445     188.053     284.646
  O     -727.862     188.001     282.510
  H     -728.444     180.362     282.709
  H     -727.261     188.753     282.343
  H     -731.949     179.891     287.145
  H     -733.313     183.714     286.040
  H     -731.305     183.929     284.613
  H     -728.635     181.366     284.590
  H     -730.657     181.290     282.613
  H     -730.767     183.690     282.490
  H     -727.698     183.644     282.557
  H     -728.473     185.847     282.029
  H     -729.788     185.775     283.234
  P     -729.987     184.708     280.045
  C     -727.909     185.622     278.842
  O     -728.688     185.654     280.035
  O     -731.250     185.376     280.510
  O     -730.121     184.263     278.514
  H     -731.025     184.438     278.195
  H     -727.074     186.284     278.943
  H     -728.512     185.932     278.014
  H     -727.556     184.626     278.673

 6  7  8  9  10  11  12  13  14  15  16  26  31  32  33  34  35 0
 6-311+G(2d,p)
 ****
 36  37 0
 6-311+G(2d,p)
 ****
 1  2  3  4  5  17  18  19  20  21  22  23  24  25 0
 3-21G
 ****
 27  28  29  30  38  39  40  41  42  43  44  45 0
 3-21G
 ****


