%nproc=1
%NoSave
%Mem=1900MB
#P OB98/GEN NMR

erre ene a

0 1
  C      627.029     522.319    -940.235
  O      627.869     521.636    -939.316
  P      627.353     521.482    -937.805
  C      628.193     520.149    -935.731
  O      628.214     520.302    -937.151
  C      628.994     518.923    -935.313
  O      628.384     517.720    -935.851
  C      630.436     518.893    -935.816
  O      631.309     519.670    -934.998
  C      630.768     517.414    -935.686
  O      631.076     517.099    -934.321
  C      629.422     516.766    -936.096
  N      629.460     512.787    -939.327
  C      629.569     512.843    -937.977
  N      629.590     513.932    -937.193
  C      629.476     515.075    -937.935
  C      629.372     515.140    -939.320
  C      629.367     513.926    -940.029
  N      629.210     513.871    -941.400
  N      629.281     516.469    -939.734
  C      629.306     517.176    -938.600
  N      629.405     516.356    -937.485
  O      625.891     520.837    -937.980
  O      627.303     522.766    -937.029
  H      631.446     516.186    -934.306
  H      625.350     521.022    -937.201
  H      629.696     511.893    -937.470
  H      629.244     518.247    -938.531
  H      629.213     515.864    -935.497
  H      631.629     517.125    -936.286
  H      630.488     519.192    -936.881
  H      628.966     518.873    -934.215
  H      627.163     520.049    -935.394
  H      629.026     512.967    -941.808
  H      628.940     514.690    -941.890
  H      628.615     521.062    -935.291
  P      632.870     519.573    -935.311
  C      634.883     521.154    -934.809
  O      633.487     520.997    -934.927
  O      632.939     519.541    -936.902
  O      633.548     518.355    -934.690
  H      633.767     519.080    -937.222
  H      635.141     522.194    -934.863
  H      635.408     520.624    -935.643
  H      635.243     520.728    -933.862
  H      627.499     522.345    -941.196
  H      626.864     523.319    -939.892
  H      626.092     521.808    -940.309

 3  4  5  6  7  8  9  10  11  12  22  25  29  30  31  32 0
 6-311+G(2d,p)
 ****
 33  36  37 0
 6-311+G(2d,p)
 ****
 1  2  13  14  15  16  17  18  19  20  21  23  24  26 0
 3-21G
 ****
 27  28  34  35  38  39  40  41  42  43  44  45  46  47  48 0
 3-21G
 ****


