%nproc=1
%NoSave
%Mem=1900MB
#P OB98/GEN NMR

erre ene a

0 1
  C      808.155     655.654    -283.063
  O      809.066     655.048    -283.992
  P      809.372     655.657    -285.441
  C      808.442     653.684    -286.818
  O      809.588     654.458    -286.485
  C      808.796     652.200    -287.000
  O      809.222     651.635    -285.752
  C      807.639     651.321    -287.464
  O      807.392     651.507    -288.850
  C      808.160     649.928    -287.094
  O      809.055     649.427    -288.086
  C      808.892     650.226    -285.763
  N      808.119     649.839    -284.601
  C      808.647     648.803    -283.805
  O      809.685     648.231    -284.164
  N      807.978     648.426    -282.678
  C      806.837     648.985    -282.388
  N      806.223     648.574    -281.243
  C      806.209     650.017    -283.230
  C      806.891     650.389    -284.301
  O      810.467     656.675    -285.455
  O      807.989     656.315    -285.916
  H      808.512     648.958    -288.741
  H      808.182     657.077    -286.488
  H      805.249     650.425    -282.966
  H      806.501     651.138    -284.980
  H      809.855     649.695    -285.748
  H      807.337     649.205    -286.984
  H      806.738     651.543    -286.886
  H      809.629     652.138    -287.701
  H      806.689     647.874    -280.680
  H      808.025     654.073    -287.759
  H      805.341     648.943    -280.928
  H      807.691     653.804    -286.034
  P      805.917     651.869    -289.361
  C      805.897     650.686    -291.640
  O      805.954     651.933    -290.958
  O      805.273     653.040    -288.690
  O      805.075     650.525    -289.082
  H      804.155     650.767    -288.878
  H      805.531     650.868    -292.659
  H      805.222     649.995    -291.135
  H      806.901     650.260    -291.688
  H      808.116     655.069    -282.168
  H      807.180     655.702    -283.500
  H      808.490     656.643    -282.828

 3  4  5  6  7  8  9  10  11  12  13  23  27  28  29  30  32 0
 6-311+G(2d,p)
 ****
 34  35 0
 6-311+G(2d,p)
 ****
 1  2  14  15  16  17  18  19  20  21  22  24  25  26 0
 3-21G
 ****
 31  33  36  37  38  39  40  41  42  43  44  45  46 0
 3-21G
 ****


