%nproc=1
%NoSave
%Mem=1900MB
#P OB98/GEN NMR

erre ene a

0 1
  C      149.909     -94.393    -109.852
  O      149.979     -95.578    -110.615
  H      148.997     -94.416    -109.249
  H      149.862     -93.526    -110.516
  H      150.767     -94.302    -109.182
  P      151.345     -95.935    -111.374
  C      151.842     -98.458    -111.599
  O      151.097     -97.350    -112.087
  C      151.156     -99.050    -110.366
  O      149.736     -99.213    -110.668
  C      151.709    -100.431    -109.960
  O      151.648    -100.545    -108.535
  C      150.697    -101.361    -110.600
  O      150.716    -102.641    -110.019
  C      149.403    -100.582    -110.381
  N      148.325    -101.084    -111.227
  C      147.825    -102.346    -110.925
  O      148.247    -103.045    -110.005
  N      146.859    -102.825    -111.767
  C      146.436    -102.227    -112.917
  O      145.626    -102.738    -113.677
  C      147.040    -100.917    -113.216
  C      147.937    -100.412    -112.367
  O      152.588     -95.861    -110.552
  O      151.377     -94.931    -112.621
  H      150.075    -103.221    -110.469
  H      152.290     -94.830    -112.951
  H      146.479    -103.734    -111.556
  H      146.739    -100.424    -114.130
  H      148.416     -99.459    -112.565
  H      149.088    -100.634    -109.330
  H      150.911    -101.473    -111.668
  H      152.731    -100.605    -110.307
  H      151.227     -98.337    -109.538
  H      152.845     -98.105    -111.334
  H      151.925     -99.216    -112.384
  P      152.840    -100.025    -107.593
  C      151.816     -99.324    -105.345
  O      152.518    -100.344    -106.049
  O      153.248     -98.610    -107.847
  O      154.060    -101.010    -107.923
  H      154.873    -100.483    -108.043
  H      151.654     -99.635    -104.334
  H      150.873     -99.147    -105.819
  H      152.393     -98.423    -105.353

 6  7  8  9  10  11  12  13  14  15  16  26  31  32  33  34  35 0
 6-311+G(2d,p)
 ****
 36  37 0
 6-311+G(2d,p)
 ****
 1  2  3  4  5  17  18  19  20  21  22  23  24  25 0
 3-21G
 ****
 27  28  29  30  38  39  40  41  42  43  44  45 0
 3-21G
 ****


