%nproc=1
%NoSave
%Mem=1900MB
#P OB98/GEN NMR

erre ene a

0 1
  C      108.991     -31.958     135.784
  O      108.392     -30.683     135.649
  H      110.075     -31.846     135.706
  H      108.646     -32.621     134.986
  H      108.747     -32.385     136.760
  P      106.792     -30.628     135.760
  C      104.940     -32.220     134.895
  O      106.288     -31.786     134.770
  C      104.753     -33.586     134.238
  O      105.499     -34.593     134.945
  C      103.311     -34.079     134.212
  O      102.594     -33.484     133.144
  C      103.524     -35.569     133.988
  O      103.792     -35.817     132.594
  C      104.787     -35.855     134.822
  N      106.005     -39.552     138.171
  C      106.303     -39.392     136.865
  N      105.911     -38.408     136.026
  C      105.127     -37.523     136.663
  C      104.738     -37.556     137.996
  C      105.220     -38.626     138.769
  N      104.922     -38.779     140.106
  N      103.928     -36.479     138.296
  C      103.877     -35.779     137.179
  N      104.553     -36.389     136.154
  O      106.175     -29.285     135.577
  O      106.564     -31.290     137.202
  H      102.932     -35.877     132.136
  H      107.186     -32.025     137.344
  H      106.944     -40.155     136.431
  H      103.377     -34.825     137.066
  H      105.455     -36.562     134.317
  H      102.646     -36.159     134.255
  H      102.819     -33.927     135.178
  H      105.167     -33.528     133.223
  H      104.260     -31.491     134.440
  H      105.164     -39.658     140.539
  H      104.238     -38.159     140.513
  H      104.714     -32.281     135.965
  P      100.991     -33.419     133.170
  C       99.062     -35.083     132.812
  O      100.468     -34.923     132.963
  O      100.384     -32.420     132.248
  O      100.628     -33.116     134.697
  H       99.868     -32.506     134.752
  H       98.833     -36.120     132.682
  H       98.731     -34.534     131.955
  H       98.565     -34.715     133.685

 6  7  8  9  10  11  12  13  14  15  25  28  32  33  34  35 0
 6-311+G(2d,p)
 ****
 36  39  40 0
 6-311+G(2d,p)
 ****
 1  2  3  4  5  16  17  18  19  20  21  22  23  24 0
 3-21G
 ****
 26  27  29  30  31  37  38  41  42  43  44  45  46  47 0
 3-21G
 ****
 48 0
 3-21G
 ****


