%nproc=1
%NoSave
%Mem=1900MB
#P OB98/GEN NMR

erre ene a

0 1
  C       65.672     117.023     -94.490
  O       66.811     117.810     -94.203
  H       64.779     117.643     -94.376
  H       65.612     116.186     -93.789
  H       65.716     116.647     -95.516
  P       68.240     117.142     -94.475
  C       68.248     117.572     -97.066
  O       68.842     117.828     -95.799
  C       68.404     118.793     -97.969
  O       67.712     119.935     -97.428
  C       69.838     119.273     -98.114
  O       70.630     118.405     -98.892
  C       69.609     120.637     -98.748
  O       69.343     120.516    -100.152
  C       68.345     121.116     -97.991
  N       68.651     122.105     -96.967
  C       68.658     123.439     -97.391
  O       68.407     123.719     -98.563
  N       68.980     124.416     -96.482
  C       69.244     124.095     -95.255
  N       69.564     125.109     -94.407
  C       69.221     122.705     -94.760
  C       68.926     121.771     -95.661
  O       67.851     115.677     -94.982
  O       69.186     117.167     -93.320
  H       69.294     121.428    -100.501
  H       67.224     115.675     -95.724
  H       69.440     122.485     -93.725
  H       68.888     120.726     -95.382
  H       67.624     121.560     -98.688
  H       70.478     121.289     -98.644
  H       70.285     119.434     -97.124
  H       67.960     118.552     -98.945
  H       69.590     126.047     -94.787
  H       67.193     117.305     -96.956
  H       69.820     124.976     -93.441
  H       68.763     116.710     -97.503
  P       72.210     118.299     -98.644
  C       72.273     116.634     -96.681
  O       72.479     116.820     -98.078
  O       72.798     119.394     -97.819
  O       72.810     118.207    -100.126
  H       72.497     117.446    -100.645
  H       72.482     115.617     -96.422
  H       71.257     116.863     -96.437
  H       72.926     117.282     -96.135

 6  7  8  9  10  11  12  13  14  15  16  26  30  31  32  33  35 0
 6-311+G(2d,p)
 ****
 37  38 0
 6-311+G(2d,p)
 ****
 1  2  3  4  5  17  18  19  20  21  22  23  24  25 0
 3-21G
 ****
 27  28  29  34  36  39  40  41  42  43  44  45  46 0
 3-21G
 ****


