%nproc=1
%NoSave
%Mem=1900MB
#P OB98/GEN NMR

erre ene a

0 1
  C     -670.913    -749.916    1475.877
  O     -672.140    -749.327    1476.254
  H     -670.832    -749.900    1474.791
  H     -670.848    -750.945    1476.224
  H     -670.080    -749.330    1476.289
  P     -672.538    -749.282    1477.810
  C     -675.006    -750.063    1477.642
  O     -674.119    -748.978    1477.871
  C     -676.356    -749.542    1477.180
  O     -676.905    -748.717    1478.234
  C     -676.290    -748.678    1475.913
  O     -677.141    -749.123    1474.857
  C     -676.443    -747.269    1476.427
  O     -676.956    -746.343    1475.485
  C     -677.307    -747.465    1477.670
  N     -677.156    -746.385    1478.669
  C     -678.234    -746.127    1479.512
  O     -679.298    -746.753    1479.513
  N     -678.075    -745.104    1480.442
  C     -676.949    -744.354    1480.545
  O     -676.851    -743.440    1481.384
  C     -675.853    -744.629    1479.620
  C     -676.003    -745.618    1478.725
  O     -671.681    -748.392    1478.644
  O     -672.437    -750.799    1478.289
  H     -677.164    -745.509    1475.970
  H     -671.628    -750.936    1478.803
  H     -678.839    -744.960    1481.044
  H     -674.961    -744.015    1479.694
  H     -675.220    -745.865    1478.034
  H     -678.367    -747.506    1477.405
  H     -675.455    -746.875    1476.724
  H     -675.267    -748.786    1475.444
  H     -677.040    -750.380    1477.031
  H     -675.100    -750.616    1478.573
  H     -674.568    -750.729    1476.873
  P     -676.806    -750.265    1473.800
  C     -677.143    -748.885    1471.562
  O     -677.557    -749.937    1472.426
  O     -676.897    -751.657    1474.297
  O     -675.255    -749.982    1473.403
  H     -674.869    -750.857    1473.212
  H     -677.787    -748.850    1470.708
  H     -676.137    -749.061    1471.243
  H     -677.194    -747.953    1472.085

 6  7  8  9  10  11  12  13  14  15  16  26  31  32  33  34  35 0
 6-311+G(2d,p)
 ****
 36  37 0
 6-311+G(2d,p)
 ****
 1  2  3  4  5  17  18  19  20  21  22  23  24  25 0
 3-21G
 ****
 27  28  29  30  38  39  40  41  42  43  44  45 0
 3-21G
 ****


