%nproc=1
%NoSave
%Mem=1900MB
#P OB98/GEN NMR

erre ene a

0 1
  C     -127.908    -841.433    -393.092
  O     -129.292    -841.135    -393.147
  H     -127.426    -841.013    -393.978
  H     -127.761    -842.510    -393.084
  H     -127.461    -840.986    -392.193
  P     -130.184    -841.584    -391.892
  C     -131.955    -840.216    -390.572
  O     -131.447    -840.588    -391.846
  C     -132.688    -838.878    -390.658
  O     -131.718    -837.789    -390.588
  C     -133.514    -838.682    -391.945
  O     -134.694    -837.938    -391.621
  C     -132.610    -837.799    -392.795
  O     -133.333    -837.085    -393.803
  C     -132.008    -836.912    -391.702
  N     -129.769    -832.398    -391.914
  C     -130.969    -832.789    -391.331
  N     -131.689    -831.818    -390.716
  N     -131.430    -834.005    -391.367
  C     -130.591    -834.886    -391.978
  C     -129.377    -834.641    -392.593
  C     -128.905    -833.258    -392.580
  O     -127.858    -832.858    -393.089
  N     -128.857    -835.782    -393.132
  C     -129.739    -836.715    -392.858
  N     -130.812    -836.222    -392.156
  O     -129.292    -841.121    -390.645
  O     -130.515    -843.040    -391.825
  H     -133.766    -837.748    -394.382
  H     -128.729    -841.851    -390.339
  H     -129.471    -831.446    -391.868
  H     -129.661    -837.768    -393.124
  H     -132.706    -836.142    -391.356
  H     -131.835    -838.400    -393.278
  H     -131.383    -830.858    -390.617
  H     -133.791    -839.619    -392.449
  H     -132.557    -832.086    -390.261
  H     -133.344    -838.784    -389.774
  H     -131.118    -840.116    -389.873
  H     -132.637    -841.002    -390.205
  P     -136.087    -838.734    -391.501
  C     -138.527    -838.106    -390.836
  O     -137.264    -837.657    -391.318
  O     -135.987    -839.413    -390.050
  O     -136.303    -839.758    -392.578
  H     -136.525    -840.239    -390.025
  H     -139.199    -837.276    -390.770
  H     -138.404    -838.544    -389.867
  H     -138.927    -838.836    -391.509

 6  7  8  9  10  11  12  13  14  15  26  29  33  34 0
 6-311+G(2d,p)
 ****
 36  38  39  40  41 0
 6-311+G(2d,p)
 ****
 1  2  3  4  5  16  17  18  19  20  21  22  23  24  25 0
 3-21G
 ****
 27  28  30  31  32  35  37  42  43  44  45  46  47 0
 3-21G
 ****
 48  49 0
 3-21G
 ****


