%nproc=1
%NoSave
%Mem=1900MB
#P OB98/GEN NMR

erre ene a

0 1
  C      406.617     380.135    -218.053
  O      405.371     379.802    -218.624
  H      406.754     379.538    -217.146
  H      406.645     381.190    -217.775
  H      407.430     379.907    -218.747
  P      404.826     380.667    -219.864
  C      404.490     378.612    -221.374
  O      403.841     379.666    -220.663
  C      403.507     377.493    -221.726
  O      403.062     376.836    -220.514
  C      402.257     377.972    -222.479
  O      402.016     377.110    -223.597
  C      401.145     377.836    -221.452
  O      399.864     377.691    -222.061
  C      401.635     376.631    -220.642
  N      400.992     376.517    -219.336
  C      399.778     375.817    -219.304
  O      399.300     375.355    -220.341
  N      399.128     375.677    -218.108
  C      399.614     376.233    -217.037
  N      398.917     376.068    -215.877
  C      400.866     377.021    -217.036
  C      401.496     377.118    -218.206
  O      405.887     381.301    -220.701
  O      403.814     381.718    -219.210
  H      399.179     377.752    -221.351
  H      403.678     382.475    -219.830
  H      401.226     377.479    -216.122
  H      402.432     377.670    -218.301
  H      401.476     375.700    -221.193
  H      401.120     378.728    -220.814
  H      402.343     378.991    -222.843
  H      404.047     376.732    -222.301
  H      398.061     375.522    -215.928
  H      405.306     378.226    -220.753
  H      399.198     376.460    -214.989
  H      404.904     379.032    -222.295
  P      402.668     377.569    -224.993
  C      403.838     375.276    -225.319
  O      402.949     376.244    -225.866
  O      404.130     378.064    -224.565
  O      401.905     378.635    -225.697
  H      404.155     379.035    -224.508
  H      403.933     374.455    -225.998
  H      403.452     374.924    -224.385
  H      404.798     375.722    -225.162

 6  7  8  9  10  11  12  13  14  15  16  26  30  31  32  33  35 0
 6-311+G(2d,p)
 ****
 37  38 0
 6-311+G(2d,p)
 ****
 1  2  3  4  5  17  18  19  20  21  22  23  24  25 0
 3-21G
 ****
 27  28  29  34  36  39  40  41  42  43  44  45  46 0
 3-21G
 ****


