%nproc=1
%NoSave
%Mem=1900MB
#P OB98/GEN NMR

erre ene a

0 1
  C       89.447    -898.860     320.890
  O       89.356    -898.450     319.512
  P       87.904    -898.330     318.848
  C       87.185    -896.190     317.590
  O       88.028    -897.360     317.571
  C       87.878    -895.040     316.863
  O       89.207    -894.780     317.371
  C       88.039    -895.260     315.357
  O       86.792    -895.130     314.688
  C       89.108    -894.230     315.017
  O       88.502    -892.940     314.821
  C       89.981    -894.220     316.288
  N       91.244    -894.910     316.123
  C       92.248    -894.210     315.451
  O       92.045    -893.070     315.028
  N       93.493    -894.810     315.293
  C       93.672    -896.000     315.740
  N       94.913    -896.550     315.558
  C       92.630    -896.820     316.418
  C       91.438    -896.210     316.558
  O       86.784    -898.050     319.783
  O       87.713    -899.780     318.147
  H       89.248    -892.310     314.658
  H       86.752    -900.000     318.152
  H       92.838    -897.800     316.782
  H       90.620    -896.710     317.059
  H       90.192    -893.190     316.583
  H       89.635    -894.480     314.103
  H       88.449    -896.290     315.209
  H       87.248    -894.120     317.043
  H       95.613    -896.000     315.052
  H       86.984    -895.910     318.633
  H       95.167    -897.470     315.900
  H       86.209    -896.430     317.128
  P       86.094    -896.480     314.157
  C       83.987    -897.030     312.740
  O       84.844    -896.030     313.246
  O       85.373    -897.030     315.502
  O       86.999    -897.510     313.578
  H       85.361    -898.010     315.488
  H       83.056    -896.570     312.412
  H       83.743    -897.790     313.520
  H       84.441    -897.540     311.896
  H       90.475    -898.892     321.185
  H       89.013    -899.831     321.002
  H       88.921    -898.161     321.506

 3  4  5  6  7  8  9  10  11  12  13  23  27  28  29  30  32 0
 6-311+G(2d,p)
 ****
 34  35 0
 6-311+G(2d,p)
 ****
 1  2  14  15  16  17  18  19  20  21  22  24  25  26 0
 3-21G
 ****
 31  33  36  37  38  39  40  41  42  43  44  45  46 0
 3-21G
 ****


