%nproc=1
%NoSave
%Mem=1900MB
#P OB98/GEN NMR

erre ene a

0 1
  C       73.104      50.614       6.048
  O       73.216      49.447       6.846
  P       73.814      49.503       8.337
  C       72.801      50.208      10.610
  O       72.728      50.309       9.198
  C       72.643      51.588      11.251
  O       73.853      52.353      11.008
  C       71.462      52.404      10.711
  O       70.941      53.171      11.803
  C       72.117      53.310       9.687
  O       71.348      54.471       9.410
  C       73.466      53.583      10.363
  N       74.486      54.025       9.420
  C       74.367      55.311       8.891
  O       73.420      56.034       9.193
  N       75.333      55.755       8.022
  C       76.283      54.957       7.647
  N       77.248      55.463       6.832
  C       76.384      53.556       8.098
  C       75.476      53.172       8.990
  O       75.203      50.031       8.434
  O       73.637      48.016       8.888
  H       71.854      55.036       8.796
  H       74.385      47.419       8.634
  H       77.179      52.920       7.734
  H       75.486      52.169       9.394
  H       73.346      54.330      11.157
  H       72.251      52.763       8.748
  H       70.667      51.777      10.299
  H       72.553      51.456      12.336
  H       77.240      56.468       6.687
  H       73.781      49.805      10.877
  H       78.159      55.025       6.767
  H       72.033      49.515      10.970
  P       69.407      53.641      11.739
  C       67.119      52.438      11.535
  O       68.515      52.372      11.344
  O       69.389      54.498      10.380
  O       68.923      54.482      12.874
  H       68.667      55.151      10.427
  H       66.676      51.493      11.208
  H       66.687      53.248      10.943
  H       66.884      52.585      12.592
  H       72.684      50.357       5.098
  H       74.074      51.043       5.906
  H       72.469      51.322       6.539

 3  4  5  6  7  8  9  10  11  12  13  23  27  28  29  30  32 0
 6-311+G(2d,p)
 ****
 34  35 0
 6-311+G(2d,p)
 ****
 1  2  14  15  16  17  18  19  20  21  22  24  25  26 0
 3-21G
 ****
 31  33  36  37  38  39  40  41  42  43  44  45  46 0
 3-21G
 ****


