%nproc=1
%NoSave
%Mem=1900MB
#P OB98/GEN NMR

erre ene a

0 1
  C     -146.497     -16.960     324.550
  O     -147.421     -17.193     325.626
  P     -147.306     -16.299     326.962
  C     -146.178     -16.605     329.305
  O     -146.215     -16.965     327.932
  C     -146.451     -17.832     330.187
  O     -147.874     -18.053     330.315
  C     -145.889     -19.134     329.635
  O     -144.491     -19.239     329.836
  C     -146.699     -20.162     330.423
  O     -146.119     -20.383     331.721
  C     -148.067     -19.469     330.542
  N     -149.067     -20.027     329.639
  C     -149.597     -21.261     329.990
  O     -149.232     -21.902     330.974
  N     -150.559     -21.759     329.151
  C     -150.976     -21.188     327.976
  O     -151.826     -21.693     327.257
  C     -150.315     -19.927     327.616
  C     -149.406     -19.414     328.450
  O     -148.677     -16.654     327.720
  O     -147.182     -14.827     326.750
  H     -146.838     -20.729     332.293
  H     -148.943     -15.900     328.281
  H     -150.986     -22.637     329.397
  H     -150.600     -19.450     326.683
  H     -148.909     -18.480     328.196
  H     -148.443     -19.552     331.572
  H     -146.738     -21.134     329.921
  H     -146.140     -19.230     328.568
  H     -146.045     -17.627     331.188
  H     -146.937     -15.845     329.497
  H     -145.193     -16.175     329.535
  P     -143.569     -19.235     328.524
  C     -143.297     -20.930     326.544
  O     -143.818     -20.663     327.829
  O     -142.105     -19.339     329.175
  O     -143.785     -18.037     327.653
  H     -142.107     -19.870     329.993
  H     -142.341     -20.418     326.384
  H     -144.018     -20.606     325.784
  H     -143.133     -22.006     326.446
  H     -146.709     -17.633     323.745
  H     -145.498     -17.123     324.896
  H     -146.596     -15.951     324.207

 3  4  5  6  7  8  9  10  11  12  13  23  28  29  30  31  32 0
 6-311+G(2d,p)
 ****
 33  34 0
 6-311+G(2d,p)
 ****
 1  2  14  15  16  17  18  19  20  21  22  24  25  26 0
 3-21G
 ****
 27  35  36  37  38  39  40  41  42  43  44  45 0
 3-21G
 ****


