%nproc=1
%NoSave
%Mem=1900MB
#P OB98/GEN NMR

erre ene a

0 1
  C     -280.586     130.008     -30.668
  O     -279.928     130.815     -29.708
  P     -278.397     130.491     -29.364
  C     -279.042     129.056     -27.299
  O     -278.357     129.112     -28.542
  C     -278.079     128.708     -26.162
  O     -278.728     128.948     -24.883
  C     -277.623     127.246     -26.171
  O     -276.271     127.167     -25.687
  C     -278.512     126.592     -25.134
  O     -277.921     125.404     -24.610
  C     -278.655     127.727     -24.121
  N     -280.411     125.792     -19.796
  C     -279.107     125.989     -20.202
  N     -278.143     125.526     -19.377
  N     -278.776     126.589     -21.314
  C     -279.846     126.994     -22.042
  C     -281.184     126.871     -21.736
  C     -281.533     126.190     -20.507
  O     -282.670     125.960     -20.105
  N     -281.975     127.431     -22.704
  C     -281.124     127.860     -23.617
  N     -279.822     127.584     -23.278
  O     -278.036     131.597     -28.261
  O     -277.467     130.572     -30.528
  H     -277.022     125.644     -24.306
  H     -277.475     132.289     -28.661
  H     -280.614     125.312     -18.933
  H     -281.394     128.349     -24.544
  H     -277.777     127.797     -23.466
  H     -279.475     126.326     -25.580
  H     -278.331     124.993     -18.539
  H     -277.687     126.756     -27.149
  H     -277.179     125.618     -19.672
  H     -277.217     129.384     -26.215
  H     -279.818     128.293     -27.354
  H     -279.523     130.020     -27.102
  P     -275.304     126.150     -26.470
  C     -277.115     124.310     -26.799
  O     -276.260     125.264     -27.397
  O     -274.839     125.134     -25.325
  O     -274.152     126.804     -27.154
  H     -273.977     124.736     -25.553
  H     -278.155     124.592     -26.998
  H     -276.968     124.237     -25.718
  H     -276.923     123.329     -27.245
  H     -281.594     130.346     -30.787
  H     -280.588     128.990     -30.337
  H     -280.073     130.078     -31.604

 3  4  5  6  7  8  9  10  11  12  23  26  30  31 0
 6-311+G(2d,p)
 ****
 33  35  36  37  38 0
 6-311+G(2d,p)
 ****
 1  2  13  14  15  16  17  18  19  20  21  22  24  25 0
 3-21G
 ****
 27  28  29  32  34  39  40  41  42  43  44  45  46  47  48  49 0
 3-21G
 ****


