%nproc=1
%NoSave
%Mem=1900MB
#P OB98/GEN NMR

erre ene a

0 1
  C     -329.391      42.923    -269.612
  O     -330.656      43.389    -270.083
  P     -330.727      44.719    -270.972
  C     -332.933      45.672    -270.005
  O     -332.262      45.156    -271.154
  C     -334.424      45.854    -270.310
  O     -334.630      46.686    -271.482
  C     -335.124      44.540    -270.643
  O     -335.291      43.620    -269.584
  C     -336.378      45.017    -271.350
  O     -337.401      45.385    -270.433
  C     -335.853      46.257    -272.112
  N     -335.653      46.005    -273.542
  C     -336.734      46.296    -274.369
  O     -337.817      46.698    -273.951
  N     -336.534      46.070    -275.705
  C     -335.401      45.566    -276.272
  O     -335.284      45.363    -277.477
  C     -334.303      45.257    -275.348
  C     -334.476      45.486    -274.041
  O     -329.918      44.702    -272.226
  O     -330.166      45.845    -269.966
  H     -337.776      44.565    -270.062
  H     -329.592      46.442    -270.482
  H     -337.305      46.280    -276.325
  H     -333.390      44.844    -275.763
  H     -333.680      45.264    -273.336
  H     -336.563      47.091    -272.020
  H     -336.798      44.235    -271.998
  H     -334.513      44.017    -271.393
  H     -334.897      46.353    -269.461
  H     -332.487      46.626    -269.718
  H     -332.778      44.987    -269.166
  P     -334.492      42.232    -269.496
  C     -336.310      40.883    -268.224
  O     -335.009      41.431    -268.200
  O     -333.018      42.268    -269.731
  O     -335.183      41.396    -270.689
  H     -334.502      40.805    -271.078
  H     -336.498      40.394    -267.263
  H     -336.395      40.144    -269.021
  H     -337.054      41.673    -268.371
  H     -329.531      42.030    -269.039
  H     -328.940      43.674    -268.997
  H     -328.754      42.716    -270.446

 3  4  5  6  7  8  9  10  11  12  13  23  28  29  30  31  32 0
 6-311+G(2d,p)
 ****
 33  34 0
 6-311+G(2d,p)
 ****
 1  2  14  15  16  17  18  19  20  21  22  24  25  26  27 0
 3-21G
 ****
 35  36  37  38  39  40  41  42  43  44  45 0
 3-21G
 ****


