%nproc=1
%NoSave
%Mem=1900MB
#P OB98/GEN NMR

erre ene a

0 1
  C      -39.529     -62.002     -73.110
  O      -40.019     -62.977     -74.015
  P      -39.305     -63.088     -75.449
  C      -39.031     -61.424     -77.430
  O      -39.795     -61.818     -76.298
  C      -39.951     -61.124     -78.609
  O      -40.671     -62.307     -79.012
  C      -41.025     -60.084     -78.313
  O      -40.533     -58.758     -78.405
  C      -42.016     -60.362     -79.432
  O      -41.564     -59.745     -80.653
  C      -41.950     -61.891     -79.548
  N      -44.735     -66.101     -79.221
  C      -43.597     -65.851     -79.962
  N      -43.178     -66.845     -80.775
  N      -42.928     -64.730     -79.910
  C      -43.469     -63.823     -79.059
  C      -44.590     -63.957     -78.270
  C      -45.326     -65.199     -78.347
  O      -46.369     -65.460     -77.757
  N      -44.820     -62.825     -77.533
  C      -43.843     -62.008     -77.870
  N      -43.023     -62.550     -78.826
  O      -40.065     -64.311     -76.147
  O      -37.830     -63.300     -75.396
  H      -40.632     -60.016     -80.773
  H      -39.543     -64.643     -76.902
  H      -45.218     -66.981     -79.301
  H      -43.701     -61.014     -77.465
  H      -41.990     -62.223     -80.590
  H      -43.013     -59.964     -79.224
  H      -43.685     -67.707     -80.908
  H      -41.506     -60.274     -77.345
  H      -42.384     -66.666     -81.377
  H      -39.327     -60.803     -79.454
  H      -38.342     -62.229     -77.698
  H      -38.440     -60.538     -77.175
  P      -40.986     -57.737     -77.252
  C      -43.110     -56.290     -76.863
  O      -42.416     -57.183     -77.713
  O      -40.004     -56.493     -77.465
  O      -40.908     -58.293     -75.869
  H      -39.883     -56.008     -76.628
  H      -43.912     -55.815     -77.434
  H      -42.443     -55.511     -76.484
  H      -43.549     -56.840     -76.026
  H      -40.095     -62.041     -72.203
  H      -39.623     -61.030     -73.547
  H      -38.499     -62.199     -72.897

 3  4  5  6  7  8  9  10  11  12  23  26  30  31 0
 6-311+G(2d,p)
 ****
 33  35  36  37  38 0
 6-311+G(2d,p)
 ****
 1  2  13  14  15  16  17  18  19  20  21  22  24  25 0
 3-21G
 ****
 27  28  29  32  34  39  40  41  42  43  44  45  46  47  48  49 0
 3-21G
 ****


