%nproc=1
%NoSave
%Mem=1900MB
#P OB98/GEN NMR

erre ene a

0 1
  C      -10.966      92.891    -125.868
  O       -9.707      93.267    -126.396
  H      -11.598      93.780    -125.725
  H      -11.463      92.217    -126.572
  H      -10.830      92.375    -124.905
  P       -8.872      94.346    -125.553
  C       -9.322      96.746    -124.676
  O       -9.841      95.620    -125.373
  C       -9.377      97.984    -125.553
  O      -10.659      98.078    -126.230
  C       -9.226      99.309    -124.818
  O       -7.869      99.587    -124.506
  C       -9.767     100.275    -125.848
  O       -8.759     100.563    -126.832
  C      -10.909      99.477    -126.498
  N      -14.757     102.893    -126.657
  C      -13.551     102.846    -127.287
  N      -12.576     101.915    -127.183
  C      -12.942     100.939    -126.346
  C      -14.117     100.844    -125.608
  C      -15.055     101.890    -125.795
  N      -16.265     101.932    -125.120
  N      -14.142      99.699    -124.852
  C      -13.004      99.102    -125.112
  N      -12.225      99.821    -125.997
  O       -7.766      94.857    -126.599
  O       -8.250      93.833    -124.299
  H       -8.098     101.152    -126.400
  H       -6.943      95.047    -126.116
  H      -13.356     103.668    -127.960
  H      -12.691      98.155    -124.679
  H      -10.911      99.588    -127.588
  H      -10.092     101.230    -125.430
  H       -9.867      99.334    -123.922
  H       -8.601      97.892    -126.339
  H       -8.277      96.563    -124.396
  H      -16.962     102.588    -125.442
  H      -16.495     101.170    -124.492
  H       -9.919      96.900    -123.762
  P       -7.579     100.540    -123.235
  C       -8.310     102.937    -122.562
  O       -8.334     101.924    -123.564
  O       -6.036     100.909    -123.402
  O       -7.871      99.924    -121.894
  H       -5.649     101.135    -122.534
  H       -8.845     103.796    -122.910
  H       -7.296     103.209    -122.354
  H       -8.771     102.567    -121.670

 6  7  8  9  10  11  12  13  14  15  25  28  32  33  34  35 0
 6-311+G(2d,p)
 ****
 36  39  40 0
 6-311+G(2d,p)
 ****
 1  2  3  4  5  16  17  18  19  20  21  22  23  24 0
 3-21G
 ****
 26  27  29  30  31  37  38  41  42  43  44  45  46  47  48 0
 3-21G
 ****


