%nproc=1
%NoSave
%Mem=1900MB
#P OB98/GEN NMR

erre ene a

0 1
  C     -229.036       3.001      56.651
  O     -229.238       2.922      58.047
  H     -229.781       2.374      56.153
  H     -228.039       2.638      56.391
  H     -229.158       4.032      56.311
  P     -228.207       3.729      58.974
  C     -229.707       5.842      59.159
  O     -228.478       5.288      58.712
  C     -229.465       7.239      59.718
  O     -230.730       7.893      59.972
  C     -228.725       7.258      61.048
  O     -227.332       7.062      60.891
  C     -229.071       8.650      61.551
  O     -228.194       9.643      60.996
  C     -230.516       8.839      61.040
  N     -231.501       8.691      62.106
  C     -232.587       9.558      62.048
  O     -232.728      10.403      61.165
  N     -233.493       9.450      63.068
  C     -233.402       8.604      64.134
  O     -234.210       8.607      65.051
  C     -232.239       7.700      64.134
  C     -231.350       7.790      63.140
  O     -226.797       3.462      58.265
  O     -228.201       3.327      60.410
  H     -226.296       2.791      58.764
  H     -227.284       9.326      61.161
  H     -234.281      10.079      63.049
  H     -232.139       7.011      64.963
  H     -230.474       7.147      63.130
  H     -230.639       9.838      60.604
  H     -228.981       8.720      62.634
  H     -229.156       6.518      61.733
  H     -228.921       7.825      58.965
  H     -230.126       5.209      59.949
  H     -230.411       5.872      58.322
  P     -226.396       7.134      62.192
  C     -227.078       4.782      63.145
  O     -227.080       6.190      63.297
  O     -226.699       8.616      62.709
  O     -224.962       6.842      61.919
  H     -227.620       8.888      62.566
  H     -227.578       4.333      63.978
  H     -226.069       4.429      63.102
  H     -227.586       4.520      62.240

 6  7  8  9  10  11  12  13  14  15  16  27  31  32  33  34  35 0
 6-311+G(2d,p)
 ****
 36  37 0
 6-311+G(2d,p)
 ****
 1  2  3  4  5  17  18  19  20  21  22  23  24  25 0
 3-21G
 ****
 26  28  29  30  38  39  40  41  42  43  44  45 0
 3-21G
 ****


