%nproc=1
%NoSave
%Mem=1900MB
#P OB98/GEN NMR

erre ene a

0 1
  C       44.965     470.637     646.584
  O       45.873     471.208     647.516
  P       45.868     472.798     647.685
  C       46.480     474.476     649.594
  O       46.369     473.122     649.176
  C       47.651     474.622     650.560
  O       47.307     474.099     651.860
  C       48.899     473.851     650.128
  O       49.612     474.545     649.116
  C       49.656     473.747     651.445
  O       50.419     474.940     651.704
  C       48.515     473.599     652.467
  N       48.357     472.223     652.938
  C       49.312     471.777     653.849
  O       50.245     472.477     654.229
  N       49.173     470.486     654.278
  C       48.226     469.595     653.853
  O       48.189     468.432     654.238
  C       47.269     470.113     652.869
  C       47.379     471.378     652.455
  O       44.303     473.170     647.730
  O       46.587     473.542     646.612
  H       50.771     474.848     652.612
  H       44.162     474.037     647.289
  H       49.828     470.151     654.958
  H       46.497     469.435     652.508
  H       46.684     471.771     651.719
  H       48.709     474.235     653.342
  H       50.371     472.913     651.440
  H       48.617     472.851     649.795
  H       47.878     475.692     650.669
  H       45.549     474.770     650.093
  H       46.618     475.116     648.715
  P       50.809     473.749     648.397
  C       51.763     473.788     645.967
  O       50.795     474.268     646.877
  O       50.191     472.267     648.345
  O       52.101     473.859     649.127
  H       49.223     472.278     648.243
  H       52.004     472.740     646.150
  H       52.665     474.402     646.040
  H       51.355     473.880     644.950
  H       45.081     469.573     646.579
  H       45.168     471.023     645.607
  H       43.963     470.885     646.865

 3  4  5  6  7  8  9  10  11  12  13  23  28  29  30  31  32 0
 6-311+G(2d,p)
 ****
 33  34 0
 6-311+G(2d,p)
 ****
 1  2  14  15  16  17  18  19  20  21  22  24  25  26 0
 3-21G
 ****
 27  35  36  37  38  39  40  41  42  43  44  45 0
 3-21G
 ****


