%nproc=1
%NoSave
%Mem=1900MB
#P OB98/GEN NMR

erre ene a

0 1
  C      102.510     291.113    -278.599
  O      103.591     291.264    -277.678
  P      104.959     291.922    -278.196
  C      105.748     289.501    -278.596
  O      105.736     290.836    -279.088
  C      106.859     288.683    -279.269
  O      106.765     288.738    -280.704
  C      108.250     289.189    -278.938
  O      108.625     288.835    -277.612
  C      109.072     288.532    -280.039
  O      109.399     287.174    -279.698
  C      108.093     288.558    -281.238
  N      108.407     289.586    -282.217
  C      108.952     289.133    -283.429
  O      109.160     287.933    -283.608
  N      109.240     290.059    -284.402
  C      109.028     291.322    -284.187
  N      109.327     292.192    -285.191
  C      108.473     291.844    -282.915
  C      108.201     290.930    -281.986
  O      105.786     292.597    -277.149
  O      104.446     292.982    -279.295
  H      109.852     286.802    -280.478
  H      105.073     293.732    -279.323
  H      108.310     292.904    -282.786
  H      107.794     291.226    -281.019
  H      108.096     287.589    -281.751
  H      110.022     289.057    -280.213
  H      108.290     290.278    -279.052
  H      106.755     287.638    -278.941
  H      109.720     291.815    -286.044
  H      104.776     289.033    -278.784
  H      109.156     293.188    -285.132
  H      105.880     289.527    -277.507
  P      108.506     289.967    -276.487
  C      110.933     290.890    -276.378
  O      109.596     291.097    -276.804
  O      109.106     289.235    -275.183
  O      107.119     290.466    -276.233
  H      108.640     289.552    -274.388
  H      111.591     291.562    -276.921
  H      111.259     289.864    -276.544
  H      111.007     291.124    -275.305
  H      101.677     290.662    -278.101
  H      102.819     290.491    -279.413
  H      102.224     292.074    -278.974

 3  4  5  6  7  8  9  10  11  12  13  23  27  28  29  30  32 0
 6-311+G(2d,p)
 ****
 34  35 0
 6-311+G(2d,p)
 ****
 1  2  14  15  16  17  18  19  20  21  22  24  25  26 0
 3-21G
 ****
 31  33  36  37  38  39  40  41  42  43  44  45  46 0
 3-21G
 ****


