%nproc=1
%NoSave
%Mem=1900MB
#P OB98/GEN NMR

erre ene a

0 1
  C     -712.117     652.513    1902.380
  O     -711.841     653.720    1903.060
  H     -711.757     651.681    1902.975
  H     -711.616     652.514    1901.419
  H     -713.201     652.391    1902.238
  P     -712.444     655.090    1902.444
  C     -710.126     655.217    1901.249
  O     -711.544     655.444    1901.160
  C     -709.415     655.846    1900.049
  O     -709.702     657.267    1900.009
  C     -707.892     655.669    1900.094
  O     -707.419     655.433    1898.764
  C     -707.387     657.033    1900.570
  O     -706.045     657.277    1900.139
  C     -708.442     657.973    1899.966
  N     -708.510     659.239    1900.720
  C     -707.753     660.303    1900.197
  O     -707.069     660.139    1899.169
  N     -707.743     661.492    1900.894
  C     -708.349     661.579    1902.030
  N     -708.272     662.775    1902.692
  C     -709.083     660.457    1902.645
  C     -709.133     659.328    1901.938
  O     -712.025     656.199    1903.514
  O     -713.921     655.071    1902.176
  H     -705.998     657.149    1899.176
  H     -712.685     656.900    1903.566
  H     -709.544     660.582    1903.614
  H     -709.640     658.444    1902.314
  H     -708.224     658.195    1898.908
  H     -707.404     657.058    1901.658
  H     -707.554     654.851    1900.744
  H     -709.830     655.390    1899.117
  H     -707.721     663.506    1902.228
  H     -709.932     654.144    1901.273
  H     -708.647     662.937    1903.594
  H     -709.765     655.663    1902.202
  P     -707.165     653.896    1898.345
  C     -704.782     653.676    1899.375
  O     -706.145     653.258    1899.406
  O     -706.298     654.013    1896.982
  O     -708.445     653.113    1898.086
  H     -706.839     653.752    1896.213
  H     -704.234     653.164    1900.138
  H     -704.729     654.731    1899.545
  H     -704.360     653.447    1898.419

 6  7  8  9  10  11  12  13  14  15  16  26  30  31  32  33  35 0
 6-311+G(2d,p)
 ****
 37  38 0
 6-311+G(2d,p)
 ****
 1  2  3  4  5  17  18  19  20  21  22  23  24  25 0
 3-21G
 ****
 27  28  29  34  36  39  40  41  42  43  44  45  46 0
 3-21G
 ****


