%nproc=1
%NoSave
%Mem=1900MB
#P OB98/GEN NMR

erre ene a

0 1
  C      -87.371      21.245      14.631
  O      -86.322      21.979      14.035
  P      -85.952      21.764      12.489
  C      -84.117      20.049      13.078
  O      -85.350      20.277      12.398
  C      -83.737      18.569      13.031
  O      -84.756      17.765      13.658
  C      -83.576      18.013      11.624
  O      -82.338      18.414      11.067
  C      -83.700      16.518      11.883
  O      -82.453      15.961      12.327
  C      -84.751      16.472      13.014
  N      -86.074      16.105      12.529
  C      -86.366      14.736      12.526
  O      -85.518      13.918      12.886
  N      -87.594      14.325      12.067
  C      -88.443      15.201      11.629
  N      -89.637      14.731      11.177
  C      -88.162      16.650      11.585
  C      -86.971      17.027      12.044
  O      -85.111      22.834      11.880
  O      -87.387      21.610      11.792
  H      -82.620      15.009      12.481
  H      -87.851      22.479      11.726
  H      -88.897      17.341      11.201
  H      -86.681      18.071      12.046
  H      -84.456      15.747      13.783
  H      -83.996      15.968      10.984
  H      -84.410      18.347      10.995
  H      -82.805      18.440      13.598
  H      -89.778      13.729      11.196
  H      -84.236      20.359      14.120
  H      -90.352      15.321      10.782
  H      -83.335      20.665      12.623
  P      -82.242      18.772       9.511
  C      -81.238      16.649       8.478
  O      -82.412      17.411       8.683
  O      -81.074      19.615       9.118
  O      -83.616      19.544       9.221
  H      -83.430      20.329       8.673
  H      -81.524      15.628       8.215
  H      -80.621      16.626       9.380
  H      -80.664      17.080       7.654
  H      -87.464      21.526      15.659
  H      -87.156      20.199      14.565
  H      -88.288      21.454      14.120

 3  4  5  6  7  8  9  10  11  12  13  23  27  28  29  30  32 0
 6-311+G(2d,p)
 ****
 34  35 0
 6-311+G(2d,p)
 ****
 1  2  14  15  16  17  18  19  20  21  22  24  25  26 0
 3-21G
 ****
 31  33  36  37  38  39  40  41  42  43  44  45  46 0
 3-21G
 ****


