%nproc=1
%NoSave
%Mem=1900MB
#P OB98/GEN NMR

erre ene a

0 1
  C     -398.296     118.230     110.543
  O     -398.968     117.030     110.888
  P     -399.969     117.056     112.139
  C     -402.347     116.944     111.103
  O     -401.331     117.763     111.672
  C     -403.535     116.814     112.058
  O     -403.120     116.104     113.257
  C     -404.117     118.157     112.502
  O     -405.535     118.026     112.683
  C     -403.504     118.371     113.870
  O     -404.290     119.260     114.662
  C     -403.451     116.936     114.390
  N     -402.828     115.605     119.224
  C     -403.911     115.402     118.391
  N     -405.006     114.845     118.951
  N     -403.917     115.712     117.121
  C     -402.751     116.266     116.699
  C     -401.606     116.501     117.426
  C     -401.618     116.165     118.832
  O     -400.705     116.345     119.630
  N     -400.623     117.044     116.646
  C     -401.178     117.178     115.459
  N     -402.481     116.752     115.449
  O     -399.297     118.140     113.109
  O     -400.129     115.747     112.834
  H     -403.874     119.295     115.548
  H     -398.866     117.693     113.859
  H     -402.879     115.359     120.200
  H     -400.696     117.597     114.582
  H     -404.426     116.608     114.765
  H     -402.500     118.802     113.770
  H     -405.087     114.647     119.938
  H     -403.913     118.990     111.818
  H     -405.827     114.729     118.373
  H     -404.304     116.199     111.574
  H     -401.936     115.952     110.906
  H     -402.675     117.372     110.153
  P     -406.431     119.217     112.084
  C     -406.890     117.931     109.869
  O     -406.342     119.075     110.493
  O     -405.566     120.525     112.397
  O     -407.808     119.293     112.658
  H     -406.147     121.307     112.456
  H     -407.706     118.243     109.211
  H     -407.274     117.204     110.592
  H     -406.111     117.450     109.268
  H     -397.668     118.056     109.694
  H     -397.698     118.554     111.369
  H     -399.015     118.986     110.306

 3  4  5  6  7  8  9  10  11  12  23  26  30  31 0
 6-311+G(2d,p)
 ****
 33  35  36  37  38 0
 6-311+G(2d,p)
 ****
 1  2  13  14  15  16  17  18  19  20  21  22  24  25 0
 3-21G
 ****
 27  28  29  32  34  39  40  41  42  43  44  45  46  47  48  49 0
 3-21G
 ****


