%nproc=1
%NoSave
%Mem=1900MB
#P OB98/GEN NMR

erre ene a

0 1
  C      106.000    -681.415       8.252
  O      105.020    -680.488       8.678
  H      106.533    -680.994       7.397
  H      105.520    -682.346       7.943
  H      106.720    -681.613       9.053
  P      104.276    -680.794      10.064
  C      102.063    -681.662       9.009
  O      103.222    -681.970       9.767
  C      101.318    -682.946       8.638
  O      101.332    -683.834       9.793
  C       99.854    -682.728       8.243
  O       99.525    -683.661       7.208
  C       99.094    -683.096       9.501
  O       97.746    -683.481       9.277
  C       99.969    -684.237      10.043
  N       99.743    -684.497      11.460
  C       98.782    -685.446      11.793
  O       98.167    -686.142      10.983
  N       98.530    -685.586      13.136
  C       99.113    -684.873      14.144
  O       98.827    -685.033      15.326
  C      100.114    -683.880      13.728
  C      100.375    -683.743      12.426
  O      103.345    -679.506      10.261
  O      105.169    -681.040      11.234
  H      103.824    -678.814      10.757
  H       97.263    -682.689       8.963
  H       97.839    -686.269      13.394
  H      100.586    -683.288      14.499
  H      101.095    -682.999      12.086
  H       99.790    -685.154       9.465
  H       99.095    -682.251      10.201
  H       99.626    -681.710       7.908
  H      101.872    -683.455       7.841
  H      102.356    -681.143       8.094
  H      101.414    -681.001       9.596
  P       99.533    -683.123       5.692
  C       96.935    -682.793       5.543
  O       98.226    -682.199       5.559
  O       99.170    -684.449       4.889
  O      100.826    -682.480       5.314
  H       98.544    -685.025       5.365
  H       96.192    -682.029       5.449
  H       96.779    -683.332       6.454
  H       96.862    -683.465       4.714

 6  7  8  9  10  11  12  13  14  15  16  27  31  32  33  34  35 0
 6-311+G(2d,p)
 ****
 36  37 0
 6-311+G(2d,p)
 ****
 1  2  3  4  5  17  18  19  20  21  22  23  24  25 0
 3-21G
 ****
 26  28  29  30  38  39  40  41  42  43  44  45 0
 3-21G
 ****


