%nproc=1
%NoSave
%Mem=1900MB
#P OB98/GEN NMR

erre ene a

0 1
  C      439.266      50.923     101.737
  O      440.200      51.371     100.777
  H      439.709      50.095     102.297
  H      438.361      50.561     101.240
  H      439.012      51.723     102.437
  P      439.873      52.699      99.940
  C      438.391      51.087      98.569
  O      438.546      52.399      99.094
  C      437.811      51.136      97.150
  O      436.526      51.833      97.198
  C      438.692      51.887      96.129
  O      438.451      51.285      94.845
  C      438.098      53.281      96.209
  O      438.543      54.119      95.172
  C      436.604      52.918      96.247
  N      435.708      54.000      96.626
  C      435.095      54.720      95.603
  O      435.258      54.505      94.403
  N      434.265      55.733      96.005
  C      433.985      56.080      97.297
  O      433.209      56.983      97.593
  C      434.668      55.290      98.331
  C      435.479      54.300      97.956
  O      441.008      53.267      99.155
  O      439.354      53.728     101.054
  H      440.067      54.357     101.276
  H      439.524      54.166      95.198
  H      433.810      56.262      95.279
  H      434.475      55.546      99.365
  H      435.991      53.687      98.697
  H      436.296      52.515      95.278
  H      438.408      53.764      97.136
  H      439.757      51.831      96.360
  H      437.604      50.112      96.817
  H      437.717      50.530      99.226
  H      439.368      50.590      98.557
  P      439.433      50.207      94.174
  C      441.538      51.719      94.149
  O      440.931      50.532      94.652
  O      439.287      50.098      92.692
  O      439.090      48.818      94.896
  H      439.310      48.077      94.297
  H      442.527      51.810      94.546
  H      440.957      52.568      94.442
  H      441.586      51.670      93.081

 6  7  8  9  10  11  12  13  14  15  16  27  31  32  33  34  35 0
 6-311+G(2d,p)
 ****
 36  37 0
 6-311+G(2d,p)
 ****
 1  2  3  4  5  17  18  19  20  21  22  23  24  25 0
 3-21G
 ****
 26  28  29  30  38  39  40  41  42  43  44  45 0
 3-21G
 ****


