%nproc=1
%NoSave
%Mem=1900MB
#P OB98/GEN NMR

erre ene a

0 1
  C      373.563     -25.289     -69.533
  O      374.485     -26.229     -70.059
  P      374.922     -26.058     -71.596
  C      376.176     -24.223     -72.937
  O      375.479     -24.561     -71.744
  C      375.715     -22.871     -73.487
  O      374.412     -23.032     -74.098
  C      375.610     -21.768     -72.430
  O      376.024     -20.542     -73.035
  C      374.122     -21.697     -72.141
  O      373.745     -20.421     -71.630
  C      373.535     -22.047     -73.517
  N      372.164     -22.542     -73.421
  C      371.144     -21.588     -73.445
  O      371.422     -20.389     -73.462
  N      369.840     -22.012     -73.393
  C      369.580     -23.271     -73.224
  N      368.272     -23.641     -73.184
  C      370.631     -24.297     -73.070
  C      371.887     -23.871     -73.198
  O      373.517     -26.008     -72.362
  O      375.810     -27.138     -72.114
  H      373.857     -19.760     -72.350
  H      373.594     -26.397     -73.253
  H      370.358     -25.329     -72.895
  H      372.720     -24.555     -73.126
  H      373.539     -21.168     -74.174
  H      373.849     -22.460     -71.402
  H      376.219     -21.970     -71.544
  H      376.411     -22.569     -74.280
  H      367.570     -22.919     -73.277
  H      375.975     -24.985     -73.696
  H      367.975     -24.601     -73.053
  H      377.252     -24.213     -72.741
  P      376.775     -19.473     -72.104
  C      378.949     -19.591     -70.743
  O      377.877     -20.321     -71.303
  O      375.679     -19.215     -70.961
  O      377.223     -18.191     -72.719
  H      375.993     -18.524     -70.353
  H      379.541     -20.266     -70.117
  H      378.574     -18.773     -70.123
  H      379.589     -19.198     -71.539
  H      373.363     -25.521     -68.508
  H      372.652     -25.331     -70.093
  H      373.978     -24.305     -69.601

 3  4  5  6  7  8  9  10  11  12  13  21  23  27  28  29  30  32 0
 6-311+G(2d,p)
 ****
 34  35 0
 6-311+G(2d,p)
 ****
 1  2  14  15  16  17  18  19  20  22  24  25  26 0
 3-21G
 ****
 31  33  36  37  38  39  40  41  42  43  44  45  46 0
 3-21G
 ****


