%nproc=1
%NoSave
%Mem=1900MB
#P OB98/GEN NMR

erre ene a

0 1
  C     -256.825    -356.052     395.264
  O     -255.765    -355.212     394.789
  P     -254.611    -354.628     395.741
  C     -252.839    -354.385     393.880
  O     -253.614    -353.718     394.870
  C     -253.549    -354.405     392.521
  O     -253.988    -353.054     392.167
  C     -252.683    -354.925     391.357
  O     -253.548    -355.702     390.519
  C     -252.261    -353.630     390.676
  O     -251.802    -353.808     389.351
  C     -253.557    -352.829     390.804
  N     -253.444    -351.402     390.536
  C     -254.434    -350.815     389.730
  O     -255.332    -351.484     389.225
  N     -254.368    -349.464     389.499
  C     -253.411    -348.751     390.009
  N     -253.417    -347.419     389.746
  C     -252.342    -349.331     390.840
  C     -252.423    -350.646     391.060
  O     -253.908    -355.676     396.543
  O     -255.342    -353.577     396.706
  H     -254.925    -353.608     397.587
  H     -251.682    -352.924     388.953
  H     -251.568    -348.708     391.256
  H     -251.687    -351.144     391.691
  H     -254.321    -353.268     390.152
  H     -251.440    -353.185     391.256
  H     -251.846    -355.554     391.682
  H     -254.457    -355.012     392.620
  H     -254.172    -347.061     389.179
  H     -252.676    -355.417     394.204
  H     -252.724    -346.776     390.102
  H     -251.868    -353.894     393.794
  P     -253.761    -357.256     390.830
  C     -256.125    -357.639     389.804
  O     -254.730    -357.849     389.698
  O     -254.733    -357.212     392.102
  O     -252.533    -358.046     391.144
  H     -254.619    -358.031     392.624
  H     -256.512    -357.344     388.822
  H     -256.379    -356.856     390.523
  H     -256.604    -358.570     390.111
  H     -257.467    -356.312     394.448
  H     -257.388    -355.529     396.008
  H     -256.411    -356.942     395.690

 3  4  5  6  7  8  9  10  11  12  13  24  27  28  29  30  32 0
 6-311+G(2d,p)
 ****
 34  35 0
 6-311+G(2d,p)
 ****
 1  2  14  15  16  17  18  19  20  21  22  23  25  26 0
 3-21G
 ****
 31  33  36  37  38  39  40  41  42  43  44  45  46 0
 3-21G
 ****


