%nproc=1
%NoSave
%Mem=1900MB
#P OB98/GEN NMR

erre ene a

0 1
  C      723.270     764.945     648.662
  O      722.778     764.813     647.340
  H      722.432     765.043     649.357
  H      723.838     764.043     648.923
  H      723.933     765.804     648.742
  P      722.179     766.121     646.644
  C      720.046     766.006     648.124
  O      720.578     766.033     646.805
  C      718.583     766.460     648.116
  O      718.552     767.910     647.900
  C      717.712     765.803     647.022
  O      716.419     765.547     647.576
  C      717.604     766.884     645.969
  O      716.428     766.758     645.170
  C      717.615     768.143     646.831
  N      715.875     771.656     643.586
  C      715.239     770.802     644.409
  N      715.779     769.938     645.289
  C      717.119     770.047     645.301
  C      717.908     770.870     644.529
  C      717.231     771.697     643.609
  N      717.870     772.521     642.712
  N      719.257     770.664     644.793
  C      719.273     769.700     645.710
  N      718.007     769.298     646.045
  O      722.416     765.820     645.085
  O      722.797     767.417     647.067
  H      715.648     766.783     645.753
  H      723.300     766.131     644.829
  H      714.154     770.817     644.364
  H      720.156     769.249     646.114
  H      716.638     768.368     647.275
  H      718.483     766.856     645.315
  H      718.141     764.862     646.631
  H      718.164     766.277     649.104
  H      720.636     766.674     648.756
  H      717.298     772.998     642.021
  H      718.876     772.479     642.650
  H      720.119     764.985     648.521
  P      716.136     764.079     648.168
  C      713.638     764.303     647.437
  O      714.570     763.937     648.463
  O      716.789     764.136     649.628
  O      716.730     762.972     647.343
  H      717.148     763.269     649.876
  H      712.640     764.150     647.791
  H      713.806     763.698     646.571
  H      713.773     765.334     647.184

 6  7  8  9  10  11  12  13  14  15  25  28  32  33  34  35 0
 6-311+G(2d,p)
 ****
 36  39  40 0
 6-311+G(2d,p)
 ****
 1  2  3  4  5  16  17  18  19  20  21  22  23  24 0
 3-21G
 ****
 26  27  29  30  31  37  38  41  42  43  44  45  46  47 0
 3-21G
 ****
 48 0
 3-21G
 ****


