%nproc=1
%NoSave
%Mem=1900MB
#P OB98/GEN NMR

erre ene a

0 1
  C       13.647      22.010      19.869
  O       12.421      22.701      19.663
  P       12.475      24.285      19.416
  C       12.584      24.855      21.943
  O       13.229      24.930      20.680
  C       13.302      25.717      22.981
  O       14.698      25.317      23.044
  C       13.275      27.220      22.688
  O       13.240      27.898      23.949
  C       14.619      27.466      22.030
  O       15.012      28.834      22.099
  C       15.493      26.502      22.827
  N       20.231      28.041      21.682
  C       19.262      28.603      22.435
  N       18.025      28.131      22.694
  C       17.828      26.953      22.079
  C       18.710      26.277      21.253
  C       19.970      26.867      21.060
  N       20.963      26.293      20.303
  N       18.138      25.112      20.786
  C       16.935      25.085      21.319
  N       16.713      26.163      22.127
  O       10.951      24.724      19.625
  O       12.984      24.703      18.081
  H       14.324      29.372      21.664
  H       10.567      25.010      18.773
  H       19.516      29.553      22.896
  H       16.195      24.316      21.151
  H       15.768      26.908      23.809
  H       14.572      27.181      20.973
  H       12.434      27.539      22.063
  H       12.863      25.510      23.964
  H       12.598      23.816      22.282
  H       21.881      26.706      20.325
  H       20.848      25.333      19.993
  H       11.542      25.174      21.842
  P       12.016      28.902      24.202
  C       13.249      30.908      23.115
  O       12.125      30.049      23.093
  O       12.423      29.645      25.561
  O       10.689      28.228      24.319
  H       11.622      29.933      26.036
  H       13.499      31.188      22.089
  H       14.119      30.429      23.574
  H       12.999      31.810      23.680
  H       13.449      20.969      20.019
  H       14.140      22.407      20.732
  H       14.275      22.134      19.011

 3  4  5  6  7  8  9  10  11  12  22  25  29  30  31  32 0
 6-311+G(2d,p)
 ****
 33  36  37 0
 6-311+G(2d,p)
 ****
 1  2  13  14  15  16  17  18  19  20  21  23  24  26 0
 3-21G
 ****
 27  28  34  35  38  39  40  41  42  43  44  45  46  47  48 0
 3-21G
 ****


