%nproc=1
%NoSave
%Mem=1900MB
#P OB98/GEN NMR

erre ene a

0 1
  C       42.728      94.683     100.851
  O       43.078      94.399     102.196
  P       42.296      95.099     103.409
  C       42.598      97.243     104.796
  O       42.970      96.541     103.616
  C       43.091      98.687     104.743
  O       42.525      99.333     103.577
  C       42.690      99.510     105.962
  O       43.748     100.422     106.272
  C       41.490     100.314     105.495
  O       41.349     101.529     106.252
  C       41.817     100.509     104.011
  N       37.956     103.625     102.692
  C       39.004     103.798     103.525
  N       39.978     102.919     103.849
  C       39.824     101.774     103.165
  C       38.808     101.451     102.278
  C       37.835     102.441     102.049
  N       36.772     102.265     101.188
  N       38.968     100.167     101.797
  C       40.069      99.733     102.365
  N       40.630     100.669     103.194
  O       42.193      94.281     104.648
  O       40.859      95.454     102.809
  H       41.337     101.277     107.198
  H       40.165      95.313     103.482
  H       39.070     104.773     104.001
  H       40.495      98.751     102.224
  H       42.469     101.377     103.852
  H       40.576      99.724     105.632
  H       42.462      98.893     106.837
  H       44.181      98.681     104.618
  H       43.052      96.739     105.654
  H       36.197     103.070     100.993
  H       36.780     101.457     100.581
  H       41.508      97.210     104.909
  P       44.110     100.574     107.833
  C       42.647     101.144     109.911
  O       42.774     101.145     108.507
  O       45.366     101.353     108.044
  O       44.190      99.041     108.287
  H       43.652      98.465     107.700
  H       41.659     101.531     110.175
  H       43.404     101.796     110.359
  H       42.749     100.131     110.305
  H       43.359      94.123     100.192
  H       42.854      95.729     100.663
  H       41.707      94.411     100.683

 3  4  5  6  7  8  9  10  11  12  22  25  29  30  31  32 0
 6-311+G(2d,p)
 ****
 33  36  37 0
 6-311+G(2d,p)
 ****
 1  2  13  14  15  16  17  18  19  20  21  23  24  26 0
 3-21G
 ****
 27  28  34  35  38  39  40  41  42  43  44  45  46  47  48 0
 3-21G
 ****


