%nproc=1
%NoSave
%Mem=1900MB
#P OB98/GEN NMR

erre ene a

0 1
  C      140.613    -555.918     752.929
  O      140.237    -556.057     751.578
  H      139.855    -555.319     753.445
  H      141.571    -555.402     753.001
  H      140.666    -556.893     753.421
  P      141.016    -557.109     750.650
  C      142.282    -555.410     749.176
  O      142.382    -556.392     750.211
  C      143.358    -555.671     748.112
  O      143.106    -554.762     746.986
  C      144.805    -555.424     748.603
  O      145.675    -556.354     747.953
  C      145.059    -554.007     748.099
  O      146.429    -553.726     748.024
  C      144.342    -554.066     746.738
  N      144.121    -552.729     746.197
  C      144.894    -552.356     745.102
  O      145.733    -553.077     744.580
  N      144.724    -551.071     744.657
  C      143.955    -550.111     745.262
  O      143.903    -548.955     744.869
  C      143.197    -550.543     746.449
  C      143.318    -551.819     746.851
  O      140.222    -557.716     749.534
  O      141.540    -558.215     751.688
  H      146.784    -553.590     748.924
  H      141.730    -559.058     751.226
  H      145.264    -550.789     743.856
  H      142.597    -549.804     746.968
  H      142.796    -552.163     747.747
  H      144.922    -554.657     746.005
  H      144.579    -553.276     748.761
  H      144.897    -555.510     749.694
  H      143.239    -556.700     747.730
  H      142.454    -554.426     749.639
  H      141.292    -555.445     748.723
  P      146.123    -557.729     748.650
  C      148.582    -557.111     749.072
  O      147.357    -557.489     749.671
  O      146.350    -558.868     747.694
  O      144.895    -558.089     749.634
  H      144.676    -559.032     749.539
  H      149.324    -556.979     749.831
  H      148.450    -556.193     748.539
  H      148.898    -557.875     748.393

 6  7  8  9  10  11  12  13  14  15  16  26  31  32  33  34  35 0
 6-311+G(2d,p)
 ****
 36  37 0
 6-311+G(2d,p)
 ****
 1  2  3  4  5  17  18  19  20  21  22  23  24  25 0
 3-21G
 ****
 27  28  29  30  38  39  40  41  42  43  44  45 0
 3-21G
 ****


