%nproc=1
%NoSave
%Mem=1900MB
#P OB98/GEN NMR

erre ene a

0 1
  C        3.533    -173.208       2.415
  O        4.250    -173.995       1.477
  P        5.854    -173.965       1.575
  C        6.134    -176.509       1.043
  O        6.384    -175.166       0.653
  C        6.469    -177.449      -0.116
  O        5.385    -177.485      -1.064
  C        7.713    -177.054      -0.901
  O        8.883    -177.495      -0.237
  C        7.465    -177.749      -2.237
  O        7.819    -179.141      -2.167
  C        5.945    -177.580      -2.408
  N        5.763    -175.622      -7.066
  C        6.380    -176.771      -6.606
  N        6.997    -177.530      -7.540
  N        6.386    -177.146      -5.356
  C        5.741    -176.282      -4.535
  C        5.104    -175.106      -4.868
  C        5.067    -174.730      -6.264
  O        4.448    -173.774      -6.729
  N        4.585    -174.485      -3.757
  C        4.876    -175.305      -2.771
  N        5.556    -176.415      -3.188
  O        6.136    -174.462       3.066
  O        6.483    -172.637       1.279
  H        7.456    -179.609      -2.941
  H        6.304    -173.704       3.660
  H        5.780    -175.392      -8.044
  H        4.598    -175.149      -1.732
  H        5.483    -178.453      -2.884
  H        8.052    -177.316      -3.048
  H        7.056    -177.293      -8.519
  H        7.742    -175.967      -1.052
  H        7.456    -178.380      -7.222
  H        6.583    -178.463       0.298
  H        5.079    -176.621       1.300
  H        6.742    -176.745       1.923
  P       10.076    -176.434      -0.055
  C       10.572    -177.034       2.430
  O       11.039    -177.003       1.093
  O        9.347    -175.184       0.643
  O       10.751    -176.031      -1.321
  H        9.739    -174.354       0.316
  H       11.054    -177.863       2.953
  H        9.486    -177.160       2.476
  H       10.845    -176.092       2.921
  H        2.483    -173.316       2.242
  H        3.809    -172.180       2.303
  H        3.767    -173.534       3.407

 3  4  5  6  7  8  9  10  11  12  23  26  30  31 0
 6-311+G(2d,p)
 ****
 33  35  36  37  38 0
 6-311+G(2d,p)
 ****
 1  2  13  14  15  16  17  18  19  20  21  22  24  25 0
 3-21G
 ****
 27  28  29  32  34  39  40  41  42  43  44  45  46  47  48  49 0
 3-21G
 ****


