%nproc=1
%NoSave
%Mem=1900MB
#P OB98/GEN NMR

erre ene a

0 1
  C      202.097    -428.844     -76.911
  O      202.630    -427.831     -77.740
  H      201.561    -428.372     -76.082
  H      202.904    -429.458     -76.503
  H      201.394    -429.474     -77.463
  P      203.230    -428.239     -79.168
  C      205.624    -428.633     -80.047
  O      204.758    -428.670     -78.923
  C      205.823    -430.037     -80.621
  O      206.465    -430.872     -79.605
  C      204.511    -430.746     -81.028
  O      204.810    -431.594     -82.148
  C      204.220    -431.563     -79.783
  O      203.244    -432.544     -80.018
  C      205.635    -432.043     -79.446
  N      205.758    -432.608     -78.115
  C      204.857    -433.609     -77.755
  O      203.986    -434.051     -78.505
  N      204.982    -434.090     -76.480
  C      205.890    -433.677     -75.551
  O      205.970    -434.162     -74.425
  C      206.799    -432.597     -75.975
  C      206.688    -432.121     -77.219
  O      203.024    -427.248     -80.268
  O      202.515    -429.634     -79.495
  H      201.752    -429.480     -80.087
  H      203.507    -433.117     -80.766
  H      204.335    -434.814     -76.201
  H      207.515    -432.234     -75.256
  H      207.342    -431.323     -77.568
  H      205.978    -432.776     -80.184
  H      203.832    -430.914     -78.990
  H      203.717    -430.044     -81.302
  H      206.523    -429.983     -81.473
  H      206.587    -428.225     -79.725
  H      205.196    -427.976     -80.813
  P      203.946    -431.612     -83.500
  C      201.708    -432.564     -84.354
  O      202.544    -432.346     -83.225
  O      204.686    -432.159     -84.676
  O      203.531    -430.083     -83.756
  H      203.532    -429.914     -84.722
  H      200.810    -433.057     -84.043
  H      202.222    -433.175     -85.066
  H      201.462    -431.624     -84.802

 6  7  8  9  10  11  12  13  14  15  16  27  31  32  33  34  35 0
 6-311+G(2d,p)
 ****
 36  37 0
 6-311+G(2d,p)
 ****
 1  2  3  4  5  17  18  19  20  21  22  23  24  25 0
 3-21G
 ****
 26  28  29  30  38  39  40  41  42  43  44  45 0
 3-21G
 ****


