%nproc=1
%NoSave
%Mem=1900MB
#P OB98/GEN NMR

erre ene a

0 1
  C     -345.281     169.492     327.659
  O     -344.641     170.167     326.593
  H     -345.165     168.413     327.512
  H     -346.347     169.733     327.675
  H     -344.819     169.770     328.612
  P     -344.677     171.771     326.639
  C     -347.264     171.799     326.716
  O     -346.054     172.114     327.389
  C     -348.356     172.803     327.082
  O     -349.532     172.592     326.280
  C     -348.826     172.717     328.533
  O     -347.931     173.399     329.395
  C     -350.168     173.428     328.438
  O     -349.964     174.853     328.430
  C     -350.694     172.966     327.063
  N     -355.632     171.564     327.177
  C     -355.038     172.772     327.315
  N     -353.719     173.061     327.317
  C     -352.983     171.951     327.155
  C     -353.451     170.656     327.001
  C     -354.848     170.477     327.007
  N     -355.449     169.249     326.855
  N     -352.402     169.770     326.864
  C     -351.323     170.525     326.879
  N     -351.619     171.850     327.088
  O     -344.439     172.460     325.340
  O     -343.587     172.068     327.775
  H     -349.202     175.039     327.854
  H     -343.650     171.409     328.489
  H     -355.709     173.617     327.436
  H     -350.310     170.170     326.728
  H     -351.203     173.780     326.530
  H     -350.819     173.205     329.288
  H     -348.990     171.681     328.840
  H     -347.980     173.807     326.854
  H     -347.590     170.787     326.971
  H     -356.436     169.188     327.041
  H     -354.860     168.428     326.854
  H     -347.062     171.839     325.641
  P     -347.699     172.897     330.899
  C     -348.888     174.892     331.997
  O     -348.910     173.487     331.770
  O     -346.344     173.168     331.455
  O     -348.019     171.330     330.850
  H     -347.404     170.841     331.428
  H     -349.737     175.172     332.585
  H     -348.919     175.405     331.059
  H     -347.991     175.155     332.518

 6  7  8  9  10  11  12  13  14  15  25  28  32  33  34  35 0
 6-311+G(2d,p)
 ****
 36  39  40 0
 6-311+G(2d,p)
 ****
 1  2  3  4  5  16  17  18  19  20  21  22  23  24 0
 3-21G
 ****
 26  27  29  30  31  37  38  41  42  43  44  45  46  47 0
 3-21G
 ****
 48 0
 3-21G
 ****


