%nproc=1
%NoSave
%Mem=1900MB
#P OB98/GEN NMR

erre ene a

0 1
  C       74.125     145.452     465.742
  O       74.035     144.184     465.116
  P       72.568     143.607     464.807
  C       72.430     144.196     462.278
  O       72.567     143.181     463.260
  C       73.501     144.038     461.201
  O       74.819     144.193     461.761
  C       73.510     142.672     460.528
  O       72.522     142.560     459.515
  C       74.902     142.655     459.918
  O       74.910     143.410     458.691
  C       75.732     143.373     460.991
  N       79.928     140.621     461.628
  C       79.646     141.597     460.696
  N       80.596     141.833     459.764
  N       78.537     142.288     460.675
  C       77.672     141.939     461.661
  C       77.842     140.988     462.646
  C       79.070     140.225     462.648
  O       79.355     139.312     463.414
  N       76.752     140.927     463.473
  C       75.923     141.835     462.997
  N       76.420     142.447     461.871
  O       71.645     144.915     464.828
  O       72.093     142.566     465.765
  H       74.495     142.841     458.011
  H       70.707     144.661     464.923
  H       80.799     140.111     461.596
  H       74.956     142.074     463.418
  H       76.479     144.041     460.550
  H       75.246     141.648     459.674
  H       81.447     141.294     459.686
  H       73.427     141.865     461.266
  H       80.391     142.500     459.029
  H       73.353     144.832     460.455
  H       72.531     145.175     462.754
  H       71.432     144.135     461.829
  P       71.972     141.083     459.200
  C       70.047     141.438     460.907
  O       70.417     141.123     459.578
  O       72.629     140.200     460.362
  O       72.310     140.577     457.839
  H       72.724     139.272     460.069
  H       68.977     141.679     460.925
  H       70.604     142.299     461.278
  H       70.223     140.575     461.557
  H       75.154     145.707     465.885
  H       73.631     145.417     466.691
  H       73.658     146.189     465.123

 3  4  5  6  7  8  9  10  11  12  23  26  30  31 0
 6-311+G(2d,p)
 ****
 33  35  36  37  38 0
 6-311+G(2d,p)
 ****
 1  2  13  14  15  16  17  18  19  20  21  22  24  25 0
 3-21G
 ****
 27  28  29  32  34  39  40  41  42  43  44  45  46  47  48  49 0
 3-21G
 ****


