%nproc=1
%NoSave
%Mem=1900MB
#P OB98/GEN NMR

erre ene a

0 1
  C      184.215    -224.937      53.982
  O      183.255    -223.901      53.904
  H      185.101    -224.559      54.498
  H      184.500    -225.257      52.979
  H      183.817    -225.790      54.544
  P      181.786    -224.291      53.394
  C      180.466    -222.563      54.827
  O      180.886    -222.965      53.528
  C      179.629    -221.285      54.733
  O      180.509    -220.186      54.336
  C      178.493    -221.353      53.702
  O      177.374    -220.613      54.211
  C      179.065    -220.620      52.500
  O      178.083    -220.088      51.622
  C      179.901    -219.540      53.202
  N      180.919    -218.959      52.320
  C      180.484    -218.070      51.336
  O      179.325    -217.677      51.207
  N      181.456    -217.634      50.469
  C      182.772    -218.000      50.475
  O      183.590    -217.589      49.653
  C      183.167    -218.947      51.530
  C      182.239    -219.375      52.387
  O      181.237    -225.230      54.568
  O      181.720    -224.952      52.056
  H      181.466    -226.166      54.395
  H      178.557    -219.571      50.934
  H      181.157    -216.990      49.750
  H      184.200    -219.267      51.558
  H      182.491    -220.094      53.169
  H      179.253    -218.741      53.581
  H      179.712    -221.296      51.921
  H      178.177    -222.372      53.450
  H      179.242    -221.043      55.730
  H      181.344    -222.376      55.449
  H      179.878    -223.370      55.281
  P      175.905    -221.162      53.864
  C      175.284    -222.094      56.241
  O      175.083    -221.095      55.241
  O      176.198    -222.725      53.650
  O      175.279    -220.466      52.699
  H      176.897    -223.061      54.246
  H      174.656    -221.888      57.082
  H      176.308    -222.088      56.550
  H      175.038    -223.055      55.840

 6  7  8  9  10  11  12  13  14  15  16  27  31  32  33  34  35 0
 6-311+G(2d,p)
 ****
 36  37 0
 6-311+G(2d,p)
 ****
 1  2  3  4  5  17  18  19  20  21  22  23  24  25 0
 3-21G
 ****
 26  28  29  30  38  39  40  41  42  43  44  45 0
 3-21G
 ****


