%nproc=1
%NoSave
%Mem=1900MB
#P OB98/GEN NMR

erre ene a

0 1
  C       -0.221      65.792    -298.386
  O       -0.532      64.441    -298.658
  H       -0.420      66.386    -299.282
  H        0.837      65.885    -298.131
  H       -0.837      66.174    -297.566
  P       -0.506      63.431    -297.412
  C        1.505      62.355    -298.653
  O        0.949      62.751    -297.407
  C        2.931      62.882    -298.784
  O        2.980      64.289    -298.454
  C        3.940      62.197    -297.869
  O        4.406      60.972    -298.420
  C        5.046      63.241    -297.841
  O        5.805      63.180    -299.066
  C        4.242      64.547    -297.777
  N        6.243      66.691    -293.644
  C        6.838      66.350    -294.844
  N        8.161      66.608    -294.954
  N        6.201      65.799    -295.843
  C        4.886      65.589    -295.586
  C        4.183      65.886    -294.440
  C        4.899      66.500    -293.346
  O        4.415      66.845    -292.271
  N        2.864      65.535    -294.557
  C        2.773      65.009    -295.763
  N        3.974      65.011    -296.426
  O       -1.468      62.237    -297.882
  O       -0.953      64.006    -296.111
  H        6.264      62.320    -299.069
  H       -1.958      61.903    -297.106
  H        6.783      67.103    -292.901
  H        1.865      64.616    -296.200
  H        4.738      65.367    -298.307
  H        5.748      63.086    -297.021
  H        8.721      66.984    -294.205
  H        3.540      62.060    -296.858
  H        8.611      66.396    -295.836
  H        3.233      62.783    -299.835
  H        0.894      62.759    -299.465
  H        1.500      61.261    -298.712
  P        3.902      59.608    -297.735
  C        6.219      58.436    -297.750
  O        5.179      59.013    -296.969
  O        3.726      58.621    -298.984
  O        2.651      59.730    -296.935
  H        3.097      57.909    -298.761
  H        6.997      58.085    -297.105
  H        6.614      59.173    -298.418
  H        5.828      57.616    -298.315

 6  7  8  9  10  11  12  13  14  15  26  29  33  34 0
 6-311+G(2d,p)
 ****
 36  38  39  40  41 0
 6-311+G(2d,p)
 ****
 1  2  3  4  5  16  17  18  19  20  21  22  23  24  25 0
 3-21G
 ****
 27  28  30  31  32  35  37  42  43  44  45  46  47 0
 3-21G
 ****
 48  49 0
 3-21G
 ****


