%nproc=1
%NoSave
%Mem=1900MB
#P OB98/GEN NMR

erre ene a

0 1
  C     -116.431       2.277      -3.145
  O     -115.423       3.135      -3.638
  H     -117.071       2.843      -2.464
  H     -115.984       1.444      -2.596
  H     -117.039       1.897      -3.969
  P     -114.332       2.483      -4.617
  C     -112.449       2.753      -2.849
  O     -113.185       1.868      -3.680
  C     -110.993       2.306      -2.786
  O     -110.926       0.880      -2.555
  C     -110.214       2.545      -4.071
  O     -109.810       3.895      -4.213
  C     -109.042       1.597      -3.878
  O     -108.006       2.195      -3.084
  C     -109.694       0.409      -3.136
  N     -109.904      -0.738      -4.013
  C     -108.820      -1.599      -4.152
  O     -107.743      -1.423      -3.583
  N     -109.000      -2.656      -5.002
  C     -110.120      -2.907      -5.738
  O     -110.192      -3.831      -6.538
  C     -111.240      -1.971      -5.540
  C     -111.081      -0.940      -4.707
  O     -113.636       3.761      -5.285
  O     -114.880       1.543      -5.637
  H     -113.973       3.888      -6.191
  H     -108.453       2.618      -2.325
  H     -108.223      -3.284      -5.124
  H     -112.148      -2.146      -6.105
  H     -111.885      -0.225      -4.560
  H     -109.056       0.085      -2.304
  H     -108.590       1.319      -4.830
  H     -110.799       2.213      -4.937
  H     -110.509       2.813      -1.940
  H     -112.871       2.740      -1.838
  H     -112.529       3.769      -3.250
  P     -109.553       4.468      -5.689
  C     -107.008       3.947      -5.297
  O     -108.130       3.895      -6.158
  O     -109.270       6.009      -5.377
  O     -110.675       4.211      -6.635
  H     -108.789       6.148      -4.543
  H     -106.160       3.518      -5.790
  H     -107.218       3.396      -4.404
  H     -106.798       4.966      -5.046

 6  7  8  9  10  11  12  13  14  15  16  27  31  32  33  34  35 0
 6-311+G(2d,p)
 ****
 36  37 0
 6-311+G(2d,p)
 ****
 1  2  3  4  5  17  18  19  20  21  22  23  24  25 0
 3-21G
 ****
 26  28  29  30  38  39  40  41  42  43  44  45 0
 3-21G
 ****


