%nproc=1
%NoSave
%Mem=1900MB
#P OB98/GEN NMR

erre ene a

0 1
  C     -661.364     231.710    -142.447
  O     -660.020     231.542    -142.858
  P     -659.023     232.777    -142.633
  C     -657.567     231.756    -144.530
  O     -657.608     232.303    -143.214
  C     -656.136     231.698    -145.047
  O     -655.609     233.035    -145.149
  C     -655.166     230.945    -144.157
  O     -655.325     229.548    -144.320
  C     -653.826     231.473    -144.636
  O     -653.345     230.715    -145.762
  C     -654.173     232.926    -145.053
  N     -653.622     233.910    -144.131
  C     -652.213     233.983    -144.074
  O     -651.532     233.209    -144.757
  N     -651.638     234.882    -143.216
  C     -652.384     235.640    -142.477
  N     -651.759     236.516    -141.648
  C     -653.865     235.591    -142.490
  C     -654.402     234.702    -143.336
  O     -658.790     232.778    -141.047
  O     -659.531     234.093    -143.133
  H     -652.431     231.031    -145.922
  H     -658.558     233.662    -140.723
  H     -654.437     236.246    -141.862
  H     -655.484     234.599    -143.408
  H     -653.766     233.139    -146.053
  H     -653.063     231.409    -143.860
  H     -655.324     231.226    -143.098
  H     -656.147     231.265    -146.066
  H     -650.742     236.528    -141.650
  H     -658.171     232.364    -145.205
  H     -652.256     237.164    -141.049
  H     -658.006     230.737    -144.501
  P     -655.705     228.680    -143.016
  C     -653.428     227.540    -142.756
  O     -654.781     227.381    -143.118
  O     -657.150     228.092    -143.399
  O     -655.725     229.395    -141.708
  H     -657.538     227.630    -142.639
  H     -652.946     226.556    -142.715
  H     -653.333     228.013    -141.778
  H     -652.916     228.153    -143.519
  H     -661.915     230.816    -142.654
  H     -661.800     232.529    -142.980
  H     -661.393     231.912    -141.397

 3  4  5  6  7  8  9  10  11  12  13  21  23  27  28  29  30  32 0
 6-311+G(2d,p)
 ****
 34  35 0
 6-311+G(2d,p)
 ****
 1  2  14  15  16  17  18  19  20  22  24  25  26 0
 3-21G
 ****
 31  33  36  37  38  39  40  41  42  43  44  45  46 0
 3-21G
 ****


