%nproc=1
%NoSave
%Mem=1900MB
#P OB98/GEN NMR

erre ene a

0 1
  C     -897.052    -642.665    -635.430
  O     -897.593    -641.796    -636.408
  P     -896.599    -640.698    -637.042
  C     -896.636    -641.932    -639.334
  O     -895.841    -641.419    -638.262
  C     -895.969    -641.696    -640.679
  O     -895.837    -640.270    -640.887
  C     -894.575    -642.318    -640.817
  O     -894.436    -642.796    -642.162
  C     -893.646    -641.152    -640.609
  O     -892.369    -641.378    -641.216
  C     -894.458    -639.998    -641.208
  N     -894.027    -638.696    -640.704
  C     -892.797    -638.212    -641.149
  O     -892.088    -638.911    -641.861
  N     -892.382    -636.970    -640.731
  C     -893.085    -636.321    -639.854
  N     -892.633    -635.095    -639.463
  C     -894.332    -636.861    -639.261
  C     -894.761    -638.017    -639.748
  O     -895.465    -640.559    -635.930
  O     -897.253    -639.383    -637.357
  H     -892.522    -641.523    -642.187
  H     -895.105    -639.647    -635.910
  H     -894.873    -636.287    -638.511
  H     -895.672    -638.477    -639.399
  H     -894.362    -639.996    -642.310
  H     -893.484    -640.986    -639.540
  H     -894.417    -643.150    -640.122
  H     -896.632    -642.077    -641.466
  H     -891.768    -634.770    -639.867
  H     -897.605    -641.424    -639.329
  H     -893.111    -634.511    -638.791
  H     -896.804    -643.007    -639.162
  P     -893.870    -644.280    -642.369
  C     -896.169    -645.401    -642.089
  O     -894.882    -645.228    -641.541
  O     -892.579    -644.273    -641.403
  O     -893.514    -644.716    -643.756
  H     -892.112    -645.113    -641.488
  H     -896.685    -646.162    -641.518
  H     -896.106    -645.725    -643.129
  H     -896.730    -644.459    -642.034
  H     -897.811    -643.340    -635.093
  H     -896.693    -642.090    -634.602
  H     -896.243    -643.221    -635.856

 3  4  5  6  7  8  9  10  11  12  13  21  23  27  28  29  30  32 0
 6-311+G(2d,p)
 ****
 34  35 0
 6-311+G(2d,p)
 ****
 1  2  14  15  16  17  18  19  20  22  24  25  26 0
 3-21G
 ****
 31  33  36  37  38  39  40  41  42  43  44  45  46 0
 3-21G
 ****


