%nproc=1
%NoSave
%Mem=1900MB
#P OB98/GEN NMR

erre ene a

0 1
  C      368.036    -196.156    -132.330
  O      367.484    -195.154    -133.208
  P      365.939    -194.736    -133.041
  C      365.091    -194.621    -135.517
  O      365.485    -193.919    -134.345
  C      365.391    -193.779    -136.760
  O      366.772    -193.341    -136.755
  C      365.215    -194.522    -138.080
  O      363.853    -194.649    -138.437
  C      366.011    -193.634    -139.033
  O      365.217    -192.517    -139.478
  C      367.170    -193.156    -138.135
  N      368.425    -193.844    -138.425
  C      369.043    -193.523    -139.627
  O      368.555    -192.748    -140.449
  N      370.237    -194.145    -139.875
  C      370.828    -195.096    -139.085
  O      371.889    -195.636    -139.370
  C      370.084    -195.453    -137.864
  C      368.935    -194.829    -137.596
  O      366.023    -193.576    -131.936
  O      365.018    -195.824    -132.596
  H      364.551    -192.877    -140.096
  H      365.189    -193.540    -131.431
  H      370.717    -193.904    -140.726
  H      370.506    -196.219    -137.223
  H      368.379    -195.083    -136.701
  H      367.324    -192.078    -138.258
  H      366.334    -194.170    -139.931
  H      365.697    -195.503    -138.019
  H      364.753    -192.887    -136.733
  H      364.016    -194.826    -135.474
  H      365.630    -195.576    -135.557
  P      363.278    -196.150    -138.555
  C      361.903    -195.894    -140.767
  O      361.898    -196.010    -139.358
  O      362.844    -196.429    -137.038
  O      364.272    -197.114    -139.111
  H      362.531    -195.623    -136.589
  H      362.726    -196.462    -141.215
  H      361.996    -194.843    -141.047
  H      360.956    -196.283    -141.156
  H      369.066    -196.315    -132.573
  H      367.496    -197.072    -132.450
  H      367.956    -195.825    -131.316

 3  4  5  6  7  8  9  10  11  12  13  23  28  29  30  31  32 0
 6-311+G(2d,p)
 ****
 33  34 0
 6-311+G(2d,p)
 ****
 1  2  14  15  16  17  18  19  20  21  22  24  25  26 0
 3-21G
 ****
 27  35  36  37  38  39  40  41  42  43  44  45 0
 3-21G
 ****


