%nproc=1
%NoSave
%Mem=1900MB
#P OB98/GEN NMR

erre ene a

0 1
  C      -38.053    -245.355    -242.682
  O      -37.840    -245.256    -244.075
  H      -37.232    -244.852    -242.164
  H      -38.074    -246.404    -242.374
  H      -38.994    -244.870    -242.410
  P      -38.885    -246.034    -245.018
  C      -36.816    -247.406    -245.818
  O      -37.957    -246.642    -246.181
  C      -36.588    -248.518    -246.835
  O      -37.620    -249.525    -246.731
  C      -36.619    -248.062    -248.293
  O      -35.429    -247.415    -248.707
  C      -36.803    -249.402    -248.981
  O      -35.561    -250.130    -248.963
  C      -37.852    -250.061    -248.061
  N      -39.229    -249.808    -248.487
  C      -39.864    -250.827    -249.207
  O      -39.277    -251.876    -249.460
  N      -41.147    -250.620    -249.657
  C      -41.753    -249.502    -249.395
  N      -43.020    -249.356    -249.868
  C      -41.131    -248.407    -248.629
  C      -39.883    -248.624    -248.210
  O      -39.659    -244.853    -245.769
  O      -39.770    -247.022    -244.337
  H      -35.373    -250.334    -248.031
  H      -40.229    -245.225    -246.486
  H      -41.670    -247.492    -248.446
  H      -39.360    -247.867    -247.642
  H      -37.699    -251.146    -248.007
  H      -37.104    -249.315    -250.024
  H      -37.496    -247.436    -248.498
  H      -35.633    -249.004    -246.591
  H      -43.399    -250.099    -250.439
  H      -36.989    -247.834    -244.825
  H      -43.516    -248.474    -249.846
  H      -35.930    -246.762    -245.779
  P      -35.511    -245.839    -249.001
  C      -36.833    -245.777    -251.243
  O      -35.572    -245.667    -250.594
  O      -34.044    -245.320    -248.629
  O      -36.573    -245.110    -248.238
  H      -34.077    -244.420    -248.252
  H      -36.705    -245.639    -252.296
  H      -37.496    -245.028    -250.863
  H      -37.246    -246.747    -251.058

 6  7  8  9  10  11  12  13  14  15  16  26  30  31  32  33  35 0
 6-311+G(2d,p)
 ****
 37  38 0
 6-311+G(2d,p)
 ****
 1  2  3  4  5  17  18  19  20  21  22  23  24  25 0
 3-21G
 ****
 27  28  29  34  36  39  40  41  42  43  44  45  46 0
 3-21G
 ****


