%nproc=1
%NoSave
%Mem=1900MB
#P OB98/GEN NMR

erre ene a

0 1
  C      148.507       5.089     330.310
  O      149.279       4.952     329.126
  P      150.702       5.695     329.088
  C      149.893       6.794     326.865
  O      150.535       6.967     328.126
  C      148.868       7.902     326.639
  O      147.868       7.871     327.682
  C      149.442       9.313     326.673
  O      150.138       9.612     325.472
  C      148.172      10.127     326.891
  O      147.457      10.268     325.652
  C      147.378       9.230     327.858
  N      145.088      11.335     331.926
  C      144.660      11.123     330.661
  N      145.340      10.577     329.627
  C      146.579      10.228     330.006
  C      147.157      10.401     331.251
  C      146.357      10.985     332.247
  N      146.797      11.204     333.534
  N      148.462       9.943     331.258
  C      148.657       9.487     330.036
  N      147.545       9.623     329.247
  O      151.609       4.697     328.227
  O      151.301       5.984     330.430
  H      146.604      10.700     325.856
  H      152.533       4.711     328.539
  H      143.641      11.430     330.449
  H      149.579       9.048     329.681
  H      146.305       9.227     327.642
  H      148.365      11.137     327.276
  H      150.116       9.435     327.530
  H      148.369       7.715     325.680
  H      149.380       5.825     326.848
  H      146.213      11.760     334.142
  H      147.781      11.072     333.728
  H      150.654       6.797     326.081
  P      151.729       9.821     325.575
  C      151.148      12.022     324.375
  O      151.913      11.408     325.404
  O      152.222       9.254     324.164
  O      152.364       9.219     326.779
  H      151.701       9.617     323.423
  H      151.330      13.098     324.405
  H      150.082      11.834     324.537
  H      151.456      11.637     323.402
  H      147.590       4.549     330.202
  H      148.294       6.124     330.479
  H      149.056       4.698     331.141

 3  4  5  6  7  8  9  10  11  12  22  25  29  30  31  32 0
 6-311+G(2d,p)
 ****
 33  36  37 0
 6-311+G(2d,p)
 ****
 1  2  13  14  15  16  17  18  19  20  21  23  24  26 0
 3-21G
 ****
 27  28  34  35  38  39  40  41  42  43  44  45  46  47  48 0
 3-21G
 ****


