%nproc=1
%NoSave
%Mem=1900MB
#P OB98/GEN NMR

erre ene a

0 1
  C     -318.119    -115.369     566.575
  O     -318.028    -114.637     565.358
  P     -319.335    -114.587     564.433
  C     -319.985    -113.276     562.283
  O     -319.085    -113.421     563.368
  C     -319.592    -112.096     561.404
  O     -319.486    -110.891     562.195
  C     -318.241    -112.258     560.726
  O     -318.344    -113.133     559.607
  C     -317.911    -110.816     560.345
  O     -318.487    -110.467     559.077
  C     -318.572    -110.009     561.502
  N     -317.599    -109.442     562.418
  C     -316.702    -108.524     561.847
  O     -316.767    -108.264     560.644
  N     -315.732    -107.956     562.643
  C     -315.674    -108.285     563.910
  N     -314.708    -107.693     564.650
  C     -316.588    -109.261     564.532
  C     -317.504    -109.807     563.726
  O     -320.457    -113.974     565.409
  O     -319.748    -115.908     563.862
  H     -318.291    -109.518     558.954
  H     -321.350    -114.261     565.136
  H     -316.489    -109.494     565.589
  H     -318.217    -110.531     564.121
  H     -319.186    -109.195     561.103
  H     -316.831    -110.649     560.265
  H     -317.500    -112.637     561.436
  H     -320.388    -111.934     560.653
  H     -314.086    -107.025     564.196
  H     -321.004    -113.099     562.680
  H     -314.580    -107.857     565.643
  H     -320.007    -114.207     561.708
  P     -316.989    -113.741     559.008
  C     -316.356    -115.967     557.918
  O     -317.351    -115.239     558.616
  O     -316.105    -113.945     560.329
  O     -316.267    -112.924     557.976
  H     -315.200    -114.219     560.084
  H     -316.653    -117.014     557.852
  H     -315.400    -115.916     558.446
  H     -316.229    -115.560     556.908
  H     -317.183    -115.321     567.091
  H     -318.356    -116.390     566.360
  H     -318.887    -114.946     567.189

 3  4  5  6  7  8  9  10  11  12  13  21  23  27  28  29  30  32 0
 6-311+G(2d,p)
 ****
 34  35 0
 6-311+G(2d,p)
 ****
 1  2  14  15  16  17  18  19  20  22  24  25  26 0
 3-21G
 ****
 31  33  36  37  38  39  40  41  42  43  44  45  46 0
 3-21G
 ****


