%nproc=1
%NoSave
%Mem=1900MB
#P OB98/GEN NMR

erre ene a

0 1
  C      119.386    -118.427     201.099
  O      119.936    -119.692     201.493
  P      120.214    -120.868     200.438
  C      120.721    -123.393     200.530
  O      120.142    -122.276     201.203
  C      121.076    -124.520     201.505
  O      122.233    -124.170     202.292
  C      119.975    -124.863     202.504
  O      118.981    -125.665     201.894
  C      120.776    -125.556     203.603
  O      121.033    -126.928     203.248
  C      122.081    -124.749     203.602
  N      124.329    -123.227     207.936
  C      124.542    -124.293     207.133
  N      123.898    -124.634     205.996
  C      122.957    -123.721     205.697
  C      122.622    -122.586     206.421
  C      123.356    -122.349     207.595
  N      123.127    -121.270     208.418
  N      121.587    -121.907     205.814
  C      121.313    -122.609     204.731
  N      122.112    -123.713     204.616
  O      121.450    -120.679     199.619
  O      118.914    -120.889     199.502
  H      121.787    -127.231     203.786
  H      119.152    -121.224     198.616
  H      125.338    -124.965     207.446
  H      120.553    -122.359     204.005
  H      122.954    -125.393     203.762
  H      120.258    -125.559     204.565
  H      119.532    -123.945     202.903
  H      121.342    -125.403     200.911
  H      121.627    -123.054     200.015
  H      123.673    -121.188     209.262
  H      122.373    -120.636     208.197
  H      120.005    -123.757     199.783
  P      117.484    -125.113     201.749
  C      115.558    -125.843     200.216
  O      116.619    -126.269     201.052
  O      117.352    -123.760     201.131
  O      116.929    -125.119     203.251
  H      116.266    -124.414     203.353
  H      114.697    -125.571     200.834
  H      115.277    -126.667     199.557
  H      115.858    -124.985     199.608
  H      119.286    -117.798     201.959
  H      118.425    -118.579     200.654
  H      120.037    -117.960     200.390

 3  4  5  6  7  8  9  10  11  12  22  25  29  30  31  32 0
 6-311+G(2d,p)
 ****
 33  36  37 0
 6-311+G(2d,p)
 ****
 1  2  13  14  15  16  17  18  19  20  21  23  24  26 0
 3-21G
 ****
 27  28  34  35  38  39  40  41  42  43  44  45  46  47  48 0
 3-21G
 ****


