%nproc=1
%NoSave
%Mem=1900MB
#P OB98/GEN NMR

erre ene a

0 1
  C      429.314    -406.157    -140.457
  O      430.503    -406.796    -140.033
  H      428.668    -406.903    -140.929
  H      429.548    -405.381    -141.192
  H      428.780    -405.721    -139.606
  P      431.569    -405.962    -139.177
  C      433.434    -404.248    -139.698
  O      432.270    -404.911    -140.178
  C      433.847    -403.128    -140.661
  O      434.276    -403.733    -141.916
  C      432.730    -402.140    -140.981
  O      433.280    -400.824    -141.094
  C      432.221    -402.603    -142.336
  O      431.613    -401.543    -143.082
  C      433.491    -403.157    -142.978
  N      431.774    -403.831    -147.684
  C      432.041    -402.671    -146.993
  N      431.798    -401.511    -147.638
  N      432.498    -402.647    -145.769
  C      432.719    -403.879    -145.247
  C      432.500    -405.103    -145.834
  C      431.965    -405.117    -147.179
  O      431.696    -406.121    -147.840
  N      432.827    -406.127    -144.975
  C      433.250    -405.518    -143.885
  N      433.190    -404.154    -143.991
  O      432.522    -406.791    -138.373
  O      430.679    -405.023    -138.237
  H      432.311    -400.869    -143.236
  H      430.674    -405.350    -137.320
  H      431.408    -403.798    -148.616
  H      433.594    -406.024    -142.983
  H      434.087    -402.373    -143.466
  H      431.469    -403.393    -142.196
  H      431.458    -401.454    -148.596
  H      431.943    -402.139    -140.217
  H      432.010    -400.636    -147.166
  H      434.720    -402.619    -140.239
  H      434.240    -404.983    -139.612
  H      433.223    -403.830    -138.706
  P      432.457    -399.576    -140.513
  C      430.762    -397.825    -141.340
  O      431.554    -398.949    -141.685
  O      433.260    -398.588    -139.735
  O      431.358    -400.288    -139.575
  H      431.191    -399.715    -138.801
  H      430.210    -397.501    -142.197
  H      431.396    -397.032    -141.003
  H      430.082    -398.094    -140.559

 6  7  8  9  10  11  12  13  14  15  26  29  33  34 0
 6-311+G(2d,p)
 ****
 36  38  39  40  41 0
 6-311+G(2d,p)
 ****
 1  2  3  4  5  16  17  18  19  20  21  22  23  24  25 0
 3-21G
 ****
 27  28  30  31  32  35  37  42  43  44  45  46  47 0
 3-21G
 ****
 48  49 0
 3-21G
 ****


