%nproc=1
%NoSave
%Mem=1900MB
#P OB98/GEN NMR

erre ene a

0 1
  C     -299.189    -793.476    -268.390
  O     -298.742    -794.594    -269.126
  H     -298.940    -793.627    -267.335
  H     -300.278    -793.375    -268.481
  H     -298.701    -792.563    -268.746
  P     -298.854    -794.504    -270.723
  C     -296.701    -795.844    -271.398
  O     -298.118    -795.798    -271.327
  C     -296.253    -797.123    -272.106
  O     -296.371    -798.276    -271.229
  C     -297.109    -797.499    -273.302
  O     -296.904    -796.635    -274.404
  C     -296.639    -798.929    -273.544
  O     -295.384    -798.958    -274.233
  C     -296.481    -799.443    -272.091
  N     -297.582    -800.306    -271.684
  C     -297.655    -801.549    -272.331
  O     -296.818    -801.857    -273.171
  N     -298.696    -802.387    -272.018
  C     -299.563    -802.045    -271.129
  N     -300.574    -802.914    -270.872
  C     -299.509    -800.754    -270.399
  C     -298.506    -799.943    -270.735
  O     -297.840    -793.320    -271.083
  O     -300.243    -794.315    -271.253
  H     -295.217    -799.894    -274.466
  H     -296.946    -793.453    -270.716
  H     -300.260    -800.509    -269.657
  H     -298.396    -798.980    -270.247
  H     -295.547    -800.006    -271.980
  H     -297.350    -799.493    -274.154
  H     -298.169    -797.527    -273.024
  H     -295.198    -797.014    -272.383
  H     -300.593    -803.785    -271.398
  H     -296.255    -795.782    -270.398
  H     -301.328    -802.736    -270.219
  H     -296.370    -794.969    -271.965
  P     -298.103    -795.721    -274.956
  C     -296.799    -793.873    -276.184
  O     -297.566    -795.057    -276.316
  O     -298.658    -794.746    -273.976
  O     -299.170    -796.794    -275.493
  H     -298.837    -797.377    -276.195
  H     -296.502    -793.530    -277.153
  H     -295.929    -794.076    -275.595
  H     -297.387    -793.119    -275.704

 6  7  8  9  10  11  12  13  14  15  16  26  30  31  32  33  35 0
 6-311+G(2d,p)
 ****
 37  38 0
 6-311+G(2d,p)
 ****
 1  2  3  4  5  17  18  19  20  21  22  23  24  25 0
 3-21G
 ****
 27  28  29  34  36  39  40  41  42  43  44  45  46 0
 3-21G
 ****


