%nproc=1
%NoSave
%Mem=1900MB
#P OB98/GEN NMR

erre ene a

0 1
  C      383.201     -36.638     -21.132
  O      381.879     -37.087     -21.456
  P      380.848     -37.322     -20.251
  C      379.964     -34.877     -20.303
  O      380.579     -35.910     -19.544
  C      378.768     -34.299     -19.537
  O      379.164     -33.750     -18.262
  C      378.061     -33.170     -20.278
  O      377.137     -33.666     -21.236
  C      377.311     -32.502     -19.136
  O      376.109     -33.243     -18.837
  C      378.312     -32.612     -17.978
  N      379.567     -28.854     -14.831
  C      378.700     -29.915     -14.649
  N      378.080     -29.986     -13.452
  N      378.460     -30.821     -15.564
  C      379.161     -30.629     -16.704
  C      380.048     -29.616     -17.003
  C      380.292     -28.615     -15.993
  O      381.040     -27.645     -16.099
  N      380.555     -29.758     -18.266
  C      379.997     -30.860     -18.729
  N      379.129     -31.417     -17.821
  O      381.740     -38.096     -19.166
  O      379.634     -38.106     -20.625
  H      376.364     -34.184     -18.796
  H      381.171     -38.660     -18.612
  H      379.710     -28.184     -14.098
  H      380.186     -31.293     -19.702
  H      377.822     -32.796     -17.016
  H      376.997     -31.481     -19.383
  H      378.256     -29.355     -12.690
  H      378.781     -32.469     -20.716
  H      377.466     -30.775     -13.289
  H      378.053     -35.116     -19.357
  H      379.635     -35.259     -21.272
  H      380.709     -34.106     -20.520
  P      377.491     -33.470     -22.788
  C      378.458     -35.741     -23.600
  O      378.723     -34.449     -23.089
  O      378.142     -32.006     -22.821
  O      376.329     -33.578     -23.714
  H      377.954     -31.576     -23.676
  H      379.404     -36.201     -23.895
  H      377.805     -35.684     -24.475
  H      377.990     -36.359     -22.829
  H      383.770     -36.527     -22.031
  H      383.676     -37.356     -20.496
  H      383.144     -35.696     -20.627

 3  4  5  6  7  8  9  10  11  12  23  26  30  31 0
 6-311+G(2d,p)
 ****
 33  35  36  37  38 0
 6-311+G(2d,p)
 ****
 1  2  13  14  15  16  17  18  19  20  21  22  24  25 0
 3-21G
 ****
 27  28  29  32  34  39  40  41  42  43  44  45  46  47  48  49 0
 3-21G
 ****


