%nproc=1
%NoSave
%Mem=1900MB
#P OB98/GEN NMR

erre ene a

0 1
  C       -1.679      28.865      -1.366
  O       -2.511      28.504      -2.448
  H       -1.655      28.040      -0.650
  H       -2.072      29.754      -0.865
  H       -0.663      29.056      -1.720
  P       -2.732      29.607      -3.592
  C       -1.162      30.584      -5.417
  O       -1.274      30.021      -4.118
  C       -0.249      31.804      -5.369
  O       -0.872      32.854      -4.596
  C        1.093      31.549      -4.698
  O        2.003      30.880      -5.553
  C        1.526      32.968      -4.372
  O        2.155      33.599      -5.498
  C        0.185      33.654      -4.030
  N        0.017      33.848      -2.594
  C        0.573      35.012      -2.073
  O        1.173      35.838      -2.760
  N        0.450      35.181      -0.721
  C       -0.127      34.299       0.145
  O       -0.140      34.476       1.356
  C       -0.711      33.093      -0.464
  C       -0.606      32.920      -1.784
  O       -3.219      30.890      -2.769
  O       -3.697      29.223      -4.662
  H       -4.184      30.997      -2.862
  H        2.148      34.558      -5.312
  H        0.856      36.013      -0.324
  H       -1.183      32.375       0.195
  H       -1.010      32.028      -2.253
  H        0.127      34.639      -4.513
  H        2.246      32.990      -3.554
  H        0.951      30.998      -3.761
  H       -0.106      32.171      -6.394
  H       -2.153      30.892      -5.767
  H       -0.767      29.826      -6.101
  P        3.272      30.149      -4.899
  C        3.449      28.009      -3.387
  O        2.696      29.134      -3.800
  O        3.905      31.338      -4.040
  O        4.191      29.535      -5.899
  H        3.235      31.927      -3.653
  H        2.897      27.460      -2.653
  H        4.376      28.336      -2.965
  H        3.643      27.381      -4.231

 6  7  8  9  10  11  12  13  14  15  16  27  31  32  33  34  35 0
 6-311+G(2d,p)
 ****
 36  37 0
 6-311+G(2d,p)
 ****
 1  2  3  4  5  17  18  19  20  21  22  23  24  25 0
 3-21G
 ****
 26  28  29  30  38  39  40  41  42  43  44  45 0
 3-21G
 ****


