%nproc=1
%NoSave
%Mem=1900MB
#P OB98/GEN NMR

erre ene a

0 1
  C     1475.390    -899.300    -170.120
  O     1474.837    -898.010    -169.949
  H     1476.180    -899.250    -170.872
  H     1474.611    -900.000    -170.475
  H     1475.804    -899.690    -169.185
  P     1474.001    -897.710    -168.625
  C     1475.597    -895.800    -167.973
  O     1474.244    -896.170    -168.220
  C     1475.752    -894.270    -167.979
  O     1474.771    -893.660    -167.097
  C     1477.138    -893.820    -167.457
  O     1478.154    -893.770    -168.433
  C     1476.820    -892.420    -166.906
  O     1476.963    -891.430    -167.928
  C     1475.374    -892.540    -166.455
  N     1476.779    -890.900    -161.823
  C     1477.355    -890.590    -163.058
  N     1478.431    -889.790    -163.034
  N     1476.875    -891.070    -164.170
  C     1475.850    -891.930    -164.022
  C     1475.235    -892.310    -162.858
  C     1475.698    -891.760    -161.613
  O     1475.236    -891.950    -160.498
  N     1474.254    -893.240    -163.089
  C     1474.336    -893.490    -164.374
  N     1475.243    -892.660    -165.006
  O     1474.797    -898.500    -167.484
  O     1472.557    -898.130    -168.658
  H     1476.560    -890.600    -167.604
  H     1474.167    -898.790    -166.791
  H     1477.163    -890.480    -160.981
  H     1473.740    -894.220    -164.912
  H     1474.785    -891.660    -166.755
  H     1477.507    -892.160    -166.112
  H     1478.875    -889.480    -162.175
  H     1477.461    -894.450    -166.607
  H     1478.976    -889.720    -163.880
  H     1475.578    -893.870    -168.982
  H     1476.190    -896.230    -168.781
  H     1475.946    -896.210    -167.021
  P     1479.462    -894.660    -168.317
  C     1479.553    -894.580    -170.940
  O     1480.252    -894.620    -169.710
  O     1478.891    -896.170    -168.280
  O     1480.337    -894.370    -167.138
  H     1478.844    -896.490    -167.357
  H     1480.254    -894.558    -171.748
  H     1478.941    -893.703    -170.974
  H     1478.935    -895.449    -171.028

 6  7  8  9  10  11  12  13  14  15  26  29  33  34 0
 6-311+G(2d,p)
 ****
 36  38  39  40  41 0
 6-311+G(2d,p)
 ****
 1  2  3  4  5  16  17  18  19  20  21  22  23  24  25 0
 3-21G
 ****
 27  28  30  31  32  35  37  42  43  44  45  46  47 0
 3-21G
 ****
 48  49 0
 3-21G
 ****


