%nproc=1
%NoSave
%Mem=1900MB
#P OB98/GEN NMR

erre ene a

0 1
  C     -161.822    -173.402     303.696
  O     -160.904    -174.465     303.832
  H     -162.297    -173.224     304.665
  H     -162.596    -173.677     302.974
  H     -161.327    -172.483     303.374
  P     -159.761    -174.640     302.727
  C     -161.335    -176.387     301.658
  O     -160.419    -175.325     301.430
  C     -161.341    -177.390     300.504
  O     -161.883    -176.765     299.320
  C     -159.934    -177.876     300.142
  O     -159.482    -178.990     300.895
  C     -160.095    -178.240     298.667
  O     -160.536    -179.599     298.512
  C     -161.172    -177.264     298.174
  N     -159.379    -175.630     293.674
  C     -159.668    -176.924     294.078
  N     -159.405    -177.895     293.173
  N     -160.145    -177.218     295.256
  C     -160.260    -176.155     296.083
  C     -159.984    -174.833     295.805
  C     -159.520    -174.504     294.471
  O     -159.268    -173.372     294.062
  N     -160.179    -174.031     296.904
  C     -160.482    -174.882     297.868
  N     -160.621    -176.170     297.396
  O     -158.852    -175.827     303.317
  O     -158.928    -173.421     302.460
  H     -161.398    -179.687     298.961
  H     -157.927    -175.697     303.038
  H     -159.037    -175.460     292.744
  H     -160.660    -174.616     298.902
  H     -161.909    -177.771     297.541
  H     -159.141    -178.155     298.137
  H     -158.959    -177.731     292.288
  H     -159.211    -177.055     300.212
  H     -159.423    -178.867     293.493
  H     -162.003    -178.231     300.755
  H     -162.321    -175.930     301.760
  H     -161.105    -176.889     302.603
  P     -158.067    -178.961     301.636
  C     -156.615    -180.027     299.723
  O     -156.921    -178.908     300.531
  O     -157.941    -180.439     302.228
  O     -157.918    -177.919     302.694
  H     -158.192    -180.458     303.173
  H     -155.819    -179.776     299.053
  H     -157.480    -180.308     299.160
  H     -156.313    -180.844     300.345

 6  7  8  9  10  11  12  13  14  15  26  29  33  34 0
 6-311+G(2d,p)
 ****
 36  38  39  40  41 0
 6-311+G(2d,p)
 ****
 1  2  3  4  5  16  17  18  19  20  21  22  23  24  25 0
 3-21G
 ****
 27  28  30  31  32  35  37  42  43  44  45  46  47 0
 3-21G
 ****
 48  49 0
 3-21G
 ****


