%nproc=1
%NoSave
%Mem=1900MB
#P OB98/GEN NMR

erre ene a

0 1
  C      -16.618      84.340     172.070
  O      -17.301      85.346     172.825
  P      -18.697      85.883     172.243
  C      -17.558      87.882     170.991
  O      -18.325      86.689     170.909
  C      -16.826      88.124     169.672
  O      -17.717      87.919     168.548
  C      -16.289      89.538     169.509
  O      -15.136      89.749     170.307
  C      -16.046      89.583     168.006
  O      -14.803      88.941     167.681
  C      -17.227      88.747     167.467
  N      -18.291      89.562     166.895
  C      -18.172      89.848     165.539
  O      -17.224      89.470     164.852
  N      -19.174      90.608     164.999
  C      -20.242      91.121     165.675
  O      -21.116      91.788     165.135
  C      -20.287      90.826     167.115
  C      -19.325      90.073     167.653
  O      -19.059      87.018     173.308
  O      -19.717      84.805     172.091
  H      -18.277      87.487     173.645
  H      -14.708      89.000     166.709
  H      -19.113      90.816     164.014
  H      -21.107      91.240     167.688
  H      -19.339      89.847     168.714
  H      -16.875      88.055     166.690
  H      -15.998      90.606     167.620
  H      -17.065      90.265     169.781
  H      -16.006      87.398     169.599
  H      -16.825      87.799     171.798
  H      -18.223      88.715     171.232
  P      -15.377      90.288     171.803
  C      -14.210      92.611     171.533
  O      -15.407      91.887     171.709
  O      -13.963      89.964     172.480
  O      -16.546      89.659     172.485
  H      -13.208      90.203     171.916
  H      -14.455      93.606     171.151
  H      -13.543      92.118     170.822
  H      -13.703      92.720     172.495
  H      -15.709      84.076     172.568
  H      -16.393      84.717     171.094
  H      -17.241      83.475     171.983

 3  4  5  6  7  8  9  10  11  12  13  24  28  29  30  31  32 0
 6-311+G(2d,p)
 ****
 33  34 0
 6-311+G(2d,p)
 ****
 1  2  14  15  16  17  18  19  20  21  22  23  25  26  27 0
 3-21G
 ****
 35  36  37  38  39  40  41  42  43  44  45 0
 3-21G
 ****


