%nproc=1
%NoSave
%Mem=1900MB
#P OB98/GEN NMR

erre ene a

0 1
  C      212.078      38.495    -567.951
  O      211.125      38.307    -568.976
  H      213.036      38.802    -568.381
  H      211.720      39.284    -567.282
  H      212.206      37.573    -567.370
  P      211.367      37.072    -569.974
  C      213.136      38.496    -571.242
  O      212.846      37.276    -570.571
  C      214.194      38.276    -572.323
  O      215.445      37.888    -571.682
  C      213.824      37.170    -573.330
  O      214.257      37.570    -574.632
  C      214.641      35.980    -572.852
  O      214.903      35.052    -573.901
  C      215.884      36.664    -572.298
  N      218.764      32.478    -571.704
  C      218.311      33.113    -572.806
  N      217.557      34.234    -572.877
  C      217.303      34.711    -571.646
  C      217.688      34.170    -570.431
  C      218.448      32.988    -570.489
  N      218.874      32.303    -569.371
  N      217.211      34.928    -569.378
  C      216.540      35.919    -569.956
  N      216.570      35.826    -571.324
  O      210.406      37.427    -571.206
  O      211.079      35.719    -569.411
  H      215.513      34.363    -573.563
  H      209.488      37.184    -570.984
  H      218.598      32.671    -573.763
  H      216.024      36.712    -569.434
  H      216.617      36.906    -573.080
  H      214.096      35.455    -572.057
  H      212.751      36.961    -573.345
  H      214.383      39.233    -572.832
  H      213.499      39.224    -570.508
  H      219.363      31.433    -569.501
  H      218.597      32.634    -568.454
  H      212.214      38.886    -571.700
  P      213.317      38.609    -575.415
  C      211.581      36.721    -575.834
  O      211.805      38.052    -575.384
  O      213.759      38.433    -576.944
  O      213.475      40.022    -574.967
  H      213.929      39.304    -577.347
  H      210.539      36.489    -575.757
  H      212.143      36.041    -575.229
  H      211.892      36.632    -576.854

 6  7  8  9  10  11  12  13  14  15  25  28  32  33  34  35 0
 6-311+G(2d,p)
 ****
 36  39  40 0
 6-311+G(2d,p)
 ****
 1  2  3  4  5  16  17  18  19  20  21  22  23  24 0
 3-21G
 ****
 26  27  29  30  31  37  38  41  42  43  44  45  46  47 0
 3-21G
 ****
 48 0
 3-21G
 ****


