%nproc=1
%NoSave
%Mem=1900MB
#P OB98/GEN NMR

erre ene a

0 1
  C      -29.045    -310.154    1012.649
  O      -29.003    -310.615    1011.321
  P      -29.009    -312.197    1010.997
  C      -27.583    -311.855    1008.870
  O      -27.656    -312.455    1010.154
  C      -26.139    -311.792    1008.385
  O      -25.404    -310.750    1009.063
  C      -25.342    -313.072    1008.623
  O      -25.686    -314.067    1007.670
  C      -23.920    -312.563    1008.516
  O      -23.493    -312.473    1007.145
  C      -24.022    -311.147    1009.134
  N      -23.517    -311.103    1010.507
  C      -22.200    -310.697    1010.658
  O      -21.499    -310.432    1009.662
  N      -21.644    -310.653    1011.917
  C      -22.378    -310.993    1012.945
  N      -21.775    -310.928    1014.168
  C      -23.767    -311.465    1012.826
  C      -24.278    -311.502    1011.594
  O      -30.259    -312.710    1010.382
  O      -28.673    -312.848    1012.427
  H      -24.084    -311.839    1006.705
  H      -29.453    -312.810    1013.026
  H      -24.328    -311.759    1013.704
  H      -25.293    -311.823    1011.409
  H      -23.458    -310.415    1008.539
  H      -23.193    -313.210    1009.028
  H      -25.526    -313.434    1009.644
  H      -26.146    -311.547    1007.306
  H      -20.808    -310.638    1014.200
  H      -27.984    -310.835    1008.944
  H      -22.244    -311.228    1015.021
  H      -28.210    -312.420    1008.167
  P      -25.812    -315.594    1008.131
  C      -26.171    -316.162    1005.642
  O      -25.506    -316.513    1006.843
  O      -27.060    -315.946    1008.872
  O      -24.519    -315.823    1009.053
  H      -24.779    -316.315    1009.848
  H      -25.641    -316.612    1004.800
  H      -26.176    -315.077    1005.505
  H      -27.194    -316.528    1005.664
  H      -29.033    -309.084    1012.656
  H      -28.194    -310.523    1013.182
  H      -29.940    -310.504    1013.120

 3  4  5  6  7  8  9  10  11  12  13  23  27  28  29  30  32 0
 6-311+G(2d,p)
 ****
 34  35 0
 6-311+G(2d,p)
 ****
 1  2  14  15  16  17  18  19  20  21  22  24  25  26 0
 3-21G
 ****
 31  33  36  37  38  39  40  41  42  43  44  45  46 0
 3-21G
 ****


