%nproc=1
%NoSave
%Mem=1900MB
#P OB98/GEN NMR

erre ene a

0 1
  C       28.515     122.500     631.094
  O       27.289     122.212     630.450
  H       28.311     122.729     632.143
  H       28.997     123.365     630.627
  H       29.177     121.629     631.045
  P       27.363     121.879     628.881
  C       25.384     120.281     629.366
  O       25.910     121.302     628.522
  C       23.863     120.390     629.444
  O       23.305     120.541     628.125
  C       23.183     119.172     630.061
  O       23.200     119.256     631.477
  C       21.764     119.327     629.518
  O       21.045     120.287     630.312
  C       22.003     119.893     628.104
  N       19.217     116.366     625.630
  C       18.990     117.042     626.772
  N       19.797     117.925     627.406
  C       20.946     118.089     626.723
  C       21.316     117.460     625.541
  C       20.391     116.564     624.988
  N       20.624     115.871     623.817
  N       22.572     117.872     625.138
  C       22.924     118.779     626.029
  N       21.992     118.918     627.031
  O       28.526     121.047     628.453
  O       27.311     123.353     628.253
  H       20.616     119.792     631.036
  H       26.675     123.908     628.737
  H       18.034     116.848     627.251
  H       23.832     119.369     625.987
  H       21.263     120.658     627.841
  H       21.200     118.394     629.544
  H       23.608     118.235     629.694
  H       23.617     121.302     630.009
  H       25.813     120.363     630.374
  H       20.001     115.110     623.599
  H       21.553     115.927     623.413
  H       25.677     119.317     628.939
  P       23.794     118.061     632.369
  C       24.667     119.883     633.965
  O       23.925     118.677     633.846
  O       25.025     117.429     631.816
  O       22.577     117.030     632.514
  H       22.916     116.161     632.804
  H       24.683     120.192     634.989
  H       24.208     120.644     633.370
  H       25.669     119.720     633.626

 6  7  8  9  10  11  12  13  14  15  25  28  32  33  34  35 0
 6-311+G(2d,p)
 ****
 36  39  40 0
 6-311+G(2d,p)
 ****
 1  2  3  4  5  16  17  18  19  20  21  22  23  24 0
 3-21G
 ****
 26  27  29  30  31  37  38  41  42  43  44  45  46  47 0
 3-21G
 ****
 48 0
 3-21G
 ****


