%nproc=1
%NoSave
%Mem=1900MB
#P OB98/GEN NMR

erre ene a

0 1
  C     -119.051     -92.058      43.478
  O     -119.269     -92.119      42.082
  H     -118.987     -91.008      43.774
  H     -118.114     -92.557      43.738
  H     -119.885     -92.525      44.007
  P     -119.358     -93.584      41.434
  C     -121.548     -93.170      40.140
  O     -120.933     -93.836      41.236
  C     -122.202     -91.868      40.605
  O     -121.160     -90.957      41.035
  C     -123.010     -91.168      39.509
  O     -124.181     -90.592      40.086
  C     -122.081     -90.066      39.031
  O     -122.789     -88.971      38.456
  C     -121.321     -89.725      40.311
  N     -118.974     -85.491      38.703
  C     -120.259     -85.744      39.024
  N     -120.799     -86.902      39.462
  C     -119.850     -87.844      39.602
  C     -118.502     -87.735      39.312
  C     -118.066     -86.487      38.833
  N     -116.762     -86.228      38.479
  N     -117.859     -88.935      39.543
  C     -118.801     -89.751      39.980
  N     -120.024     -89.140      40.015
  O     -118.626     -94.660      42.163
  O     -118.863     -93.308      39.939
  H     -122.145     -88.262      38.251
  H     -119.264     -92.498      39.573
  H     -120.948     -84.912      38.909
  H     -118.652     -90.786      40.266
  H     -121.863     -89.013      40.946
  H     -121.400     -90.464      38.270
  H     -123.290     -91.844      38.700
  H     -122.821     -92.080      41.484
  H     -122.305     -93.816      39.683
  H     -116.532     -85.301      38.158
  H     -116.067     -86.953      38.585
  H     -120.774     -92.961      39.396
  P     -125.415     -91.554      40.432
  C     -126.535     -90.180      42.306
  O     -125.801     -91.354      41.977
  O     -125.285     -92.970      39.981
  O     -126.636     -90.831      39.683
  H     -127.230     -91.513      39.315
  H     -126.729     -90.164      43.358
  H     -127.462     -90.178      41.772
  H     -125.966     -89.316      42.035

 6  7  8  9  10  11  12  13  14  15  25  28  32  33  34  35 0
 6-311+G(2d,p)
 ****
 36  39  40 0
 6-311+G(2d,p)
 ****
 1  2  3  4  5  16  17  18  19  20  21  22  23  24 0
 3-21G
 ****
 26  27  29  30  31  37  38  41  42  43  44  45  46  47 0
 3-21G
 ****
 48 0
 3-21G
 ****


