%nproc=1
%NoSave
%Mem=1900MB
#P OB98/GEN NMR

erre ene a

0 1
  C       18.914     -47.465     -44.261
  O       19.334     -48.802     -44.541
  P       19.805     -49.748     -43.339
  C       20.189     -52.278     -42.961
  O       20.102     -51.218     -43.906
  C       19.897     -53.616     -43.645
  O       18.473     -53.868     -43.731
  C       20.385     -53.663     -45.087
  O       21.782     -53.687     -45.286
  C       19.580     -54.816     -45.663
  O       20.180     -56.076     -45.366
  C       18.236     -54.663     -44.913
  N       17.188     -54.075     -45.747
  C       16.327     -54.973     -46.369
  O       16.443     -56.193     -46.280
  N       15.340     -54.417     -47.138
  C       15.157     -53.085     -47.367
  O       14.268     -52.642     -48.083
  C       16.112     -52.186     -46.701
  C       17.069     -52.712     -45.934
  O       18.964     -49.698     -42.108
  O       21.284     -49.202     -43.021
  H       21.042     -56.105     -45.824
  H       21.395     -49.191     -42.051
  H       14.701     -55.053     -47.591
  H       16.001     -51.123     -46.864
  H       17.784     -52.067     -45.434
  H       17.878     -55.640     -44.567
  H       19.502     -54.749     -46.753
  H       20.032     -52.752     -45.591
  H       20.337     -54.417     -43.047
  H       19.482     -52.107     -42.146
  H       21.187     -52.271     -42.510
  P       22.588     -52.506     -46.011
  C       25.098     -52.276     -46.613
  O       23.959     -53.106     -46.585
  O       22.658     -51.191     -45.308
  O       21.727     -52.317     -47.356
  H       21.757     -51.376     -47.611
  H       25.929     -52.839     -47.047
  H       25.374     -51.970     -45.601
  H       24.914     -51.394     -47.232
  H       18.636     -46.980     -45.173
  H       19.717     -46.928     -43.802
  H       18.074     -47.486     -43.598

 3  4  5  6  7  8  9  10  11  12  13  23  28  29  30  31  32 0
 6-311+G(2d,p)
 ****
 33  34 0
 6-311+G(2d,p)
 ****
 1  2  14  15  16  17  18  19  20  21  22  24  25  26  27 0
 3-21G
 ****
 35  36  37  38  39  40  41  42  43  44  45 0
 3-21G
 ****


