%nproc=1
%NoSave
%Mem=1900MB
#P OB98/GEN NMR

erre ene a

0 1
  C      142.316      21.371      72.494
  O      142.657      22.377      73.432
  P      143.747      22.094      74.573
  C      143.844      20.743      76.759
  O      143.059      21.099      75.628
  C      142.993      20.027      77.805
  O      142.595      18.737      77.281
  C      143.725      19.780      79.119
  O      142.795      19.916      80.199
  C      144.157      18.327      79.043
  O      144.315      17.761      80.356
  C      143.028      17.720      78.205
  N      142.348      12.691      77.419
  C      141.718      13.566      78.232
  N      141.965      14.883      78.410
  C      142.952      15.289      77.593
  C      143.685      14.515      76.706
  C      143.350      13.151      76.636
  N      143.988      12.263      75.796
  N      144.637      15.280      76.061
  C      144.465      16.493      76.533
  N      143.453      16.554      77.455
  O      144.358      23.310      75.178
  O      144.841      21.171      73.863
  H      144.786      16.910      80.246
  H      145.738      21.408      74.169
  H      140.903      13.154      78.825
  H      145.051      17.357      76.254
  H      142.169      17.439      78.827
  H      145.123      18.257      78.529
  H      144.572      20.458      79.269
  H      142.077      20.611      77.971
  H      144.255      21.660      77.195
  H      143.601      11.335      75.724
  H      144.610      12.637      75.091
  H      144.678      20.107      76.439
  P      143.396      20.502      81.575
  C      145.599      19.904      82.826
  O      144.554      19.475      81.983
  O      142.328      20.765      82.585
  O      144.156      21.812      81.050
  H      144.409      21.725      80.104
  H      146.307      19.080      82.957
  H      145.203      20.177      83.809
  H      146.122      20.755      82.387
  H      141.577      21.749      71.819
  H      141.925      20.519      73.011
  H      143.188      21.085      71.944

 3  4  5  6  7  8  9  10  11  12  22  25  29  30  31  32 0
 6-311+G(2d,p)
 ****
 33  36  37 0
 6-311+G(2d,p)
 ****
 1  2  13  14  15  16  17  18  19  20  21  23  24  26 0
 3-21G
 ****
 27  28  34  35  38  39  40  41  42  43  44  45  46  47  48 0
 3-21G
 ****


