%nproc=1
%NoSave
%Mem=1900MB
#P OB98/GEN NMR

erre ene a

0 1
  C      296.348    -660.317     -93.471
  O      296.109    -660.351     -92.058
  P      297.273    -660.907     -91.099
  C      298.729    -659.776     -89.295
  O      297.426    -659.891     -89.866
  C      298.865    -658.473     -88.501
  O      299.053    -657.336     -89.363
  C      297.625    -658.158     -87.659
  O      297.551    -658.998     -86.521
  C      297.837    -656.672     -87.373
  O      298.737    -656.495     -86.262
  C      298.513    -656.182     -88.674
  N      297.609    -655.425     -89.532
  C      297.656    -654.030     -89.405
  O      298.407    -653.513     -88.587
  N      296.851    -653.265     -90.216
  C      296.063    -653.848     -91.061
  N      295.279    -653.033     -91.838
  C      295.955    -655.313     -91.228
  C      296.750    -656.033     -90.427
  O      298.542    -661.278     -91.781
  O      296.590    -662.179     -90.408
  H      299.041    -655.560     -86.310
  H      297.293    -662.841     -90.202
  H      295.282    -655.748     -91.946
  H      296.738    -657.127     -90.464
  H      299.367    -655.542     -88.436
  H      296.908    -656.170     -87.121
  H      296.724    -658.286     -88.281
  H      299.744    -658.580     -87.842
  H      295.354    -652.035     -91.704
  H      299.476    -659.799     -90.095
  H      294.672    -653.386     -92.559
  H      298.913    -660.652     -88.661
  P      296.423    -660.133     -86.507
  C      296.188    -662.312     -85.115
  O      296.581    -660.950     -85.143
  O      296.948    -661.162     -87.620
  O      295.041    -659.661     -86.828
  H      296.188    -661.577     -88.077
  H      296.630    -662.786     -84.250
  H      296.522    -662.837     -86.026
  H      295.099    -662.391     -85.045
  H      295.486    -659.925     -93.969
  H      296.544    -661.308     -93.824
  H      297.193    -659.693     -93.675

 3  4  5  6  7  8  9  10  11  12  13  23  27  28  29  30  32 0
 6-311+G(2d,p)
 ****
 34  35 0
 6-311+G(2d,p)
 ****
 1  2  14  15  16  17  18  19  20  21  22  24  25  26 0
 3-21G
 ****
 31  33  36  37  38  39  40  41  42  43  44  45  46 0
 3-21G
 ****


