%nproc=1
%NoSave
%Mem=1900MB
#P OB98/GEN NMR

erre ene a

0 1
  C     -437.851      65.497    -472.305
  O     -438.553      64.607    -473.171
  P     -440.153      64.734    -473.243
  C     -442.147      64.019    -471.750
  O     -440.742      64.100    -471.887
  C     -442.546      63.487    -470.374
  O     -441.973      62.154    -470.193
  C     -442.059      64.343    -469.198
  O     -443.041      64.237    -468.158
  C     -440.793      63.631    -468.747
  O     -440.434      63.965    -467.412
  C     -441.196      62.182    -468.977
  N     -437.664      59.525    -466.390
  C     -438.699      60.283    -465.974
  N     -439.595      60.957    -466.731
  C     -439.348      60.792    -468.030
  C     -438.311      60.080    -468.610
  C     -437.436      59.410    -467.736
  N     -436.389      58.630    -468.149
  N     -438.362      60.160    -469.988
  C     -439.416      60.919    -470.243
  N     -440.054      61.305    -469.093
  O     -440.537      63.652    -474.360
  O     -440.673      66.088    -473.598
  H     -440.160      64.902    -467.392
  H     -440.865      64.104    -475.167
  H     -438.824      60.352    -464.901
  H     -439.751      61.218    -471.229
  H     -441.832      61.801    -468.165
  H     -439.958      63.916    -469.405
  H     -441.889      65.399    -469.457
  H     -443.634      63.377    -470.342
  H     -442.534      63.336    -472.514
  H     -435.902      58.070    -467.463
  H     -436.331      58.389    -469.131
  H     -442.595      65.004    -471.923
  P     -443.164      65.484    -467.140
  C     -441.942      66.223    -464.976
  O     -442.029      65.281    -466.032
  O     -444.527      65.175    -466.350
  O     -443.201      66.821    -467.814
  H     -444.933      66.006    -466.044
  H     -441.602      65.701    -464.079
  H     -442.913      66.692    -464.772
  H     -441.213      66.993    -465.234
  H     -436.802      65.296    -472.362
  H     -438.188      65.355    -471.299
  H     -438.037      66.507    -472.605

 3  4  5  6  7  8  9  10  11  12  22  25  29  30  31  32 0
 6-311+G(2d,p)
 ****
 33  36  37 0
 6-311+G(2d,p)
 ****
 1  2  13  14  15  16  17  18  19  20  21  23  24  26 0
 3-21G
 ****
 27  28  34  35  38  39  40  41  42  43  44  45  46  47  48 0
 3-21G
 ****


