%nproc=1
%NoSave
%Mem=1900MB
#P OB98/GEN NMR

erre ene a

0 1
  C     -142.942     625.984     307.461
  O     -143.099     624.571     307.664
  P     -143.607     623.624     306.472
  C     -145.919     622.690     307.031
  O     -145.204     623.727     306.363
  C     -147.441     622.897     307.020
  O     -147.960     622.988     305.671
  C     -148.247     621.807     307.737
  O     -149.373     622.470     308.315
  C     -148.675     620.909     306.588
  O     -149.775     620.064     306.929
  C     -148.951     621.953     305.500
  N     -148.896     621.365     304.160
  C     -150.117     621.232     303.478
  O     -151.175     621.524     304.035
  N     -150.108     620.708     302.212
  C     -148.997     620.275     301.708
  N     -149.062     619.736     300.456
  C     -147.704     620.321     302.404
  C     -147.730     620.889     303.607
  O     -143.073     622.231     306.515
  O     -143.102     624.383     305.144
  H     -150.526     620.634     307.199
  H     -142.922     623.721     304.446
  H     -146.802     619.928     301.962
  H     -146.826     620.982     304.215
  H     -149.940     622.419     305.644
  H     -147.833     620.256     306.294
  H     -147.680     621.264     308.505
  H     -147.638     623.874     307.492
  H     -149.972     619.696     300.005
  H     -145.572     622.635     308.070
  H     -148.285     619.271     300.008
  H     -145.676     621.732     306.557
  P     -149.470     622.804     309.882
  C     -150.485     620.787     311.130
  O     -149.304     621.403     310.659
  O     -150.661     623.590     310.291
  O     -148.106     623.590     310.211
  H     -148.220     624.058     311.064
  H     -150.271     619.772     311.438
  H     -151.258     620.761     310.329
  H     -150.883     621.355     311.965
  H     -142.597     626.438     308.366
  H     -143.883     626.411     307.184
  H     -142.229     626.155     306.682

 3  4  5  6  7  8  9  10  11  12  13  23  27  28  29  30  32 0
 6-311+G(2d,p)
 ****
 34  35 0
 6-311+G(2d,p)
 ****
 1  2  14  15  16  17  18  19  20  21  22  24  25  26 0
 3-21G
 ****
 31  33  36  37  38  39  40  41  42  43  44  45  46 0
 3-21G
 ****


