%nproc=1
%NoSave
%Mem=1900MB
#P OB98/GEN NMR

erre ene a

0 1
  C     -827.818      56.516     165.627
  O     -828.900      55.765     165.117
  H     -826.935      56.299     165.019
  H     -827.620      56.218     166.656
  H     -828.012      57.590     165.577
  P     -830.384      56.111     165.623
  C     -831.122      57.202     163.405
  O     -830.868      57.390     164.791
  C     -829.921      57.644     162.561
  O     -828.754      56.857     162.946
  C     -830.136      57.464     161.034
  O     -829.388      58.498     160.389
  C     -829.486      56.112     160.801
  O     -829.191      55.908     159.440
  C     -828.281      56.203     161.741
  N     -827.698      54.893     162.037
  C     -826.517      54.570     161.377
  O     -825.979      55.318     160.557
  N     -825.978      53.342     161.643
  C     -826.557      52.386     162.444
  O     -826.047      51.274     162.631
  C     -827.824      52.771     163.090
  C     -828.331      53.966     162.864
  O     -830.553      56.226     167.105
  O     -831.304      54.943     165.010
  H     -830.005      55.957     158.902
  H     -832.051      54.764     165.598
  H     -825.123      53.090     161.184
  H     -828.308      52.028     163.728
  H     -829.263      54.281     163.318
  H     -827.497      56.833     161.316
  H     -830.156      55.303     161.123
  H     -831.173      57.503     160.737
  H     -829.695      58.694     162.808
  H     -832.000      57.793     163.138
  H     -831.329      56.135     163.221
  P     -830.086      59.739     159.665
  C     -828.695      61.702     160.584
  O     -829.966      61.041     160.596
  O     -831.480      59.476     159.191
  O     -829.137      60.082     158.416
  H     -829.661      60.480     157.694
  H     -828.728      62.550     161.235
  H     -828.470      62.025     159.589
  H     -827.937      61.025     160.919

 6  7  8  9  10  11  12  13  14  15  16  26  31  32  33  34  35 0
 6-311+G(2d,p)
 ****
 36  37 0
 6-311+G(2d,p)
 ****
 1  2  3  4  5  17  18  19  20  21  22  23  24  25 0
 3-21G
 ****
 27  28  29  30  38  39  40  41  42  43  44  45 0
 3-21G
 ****


