%nproc=1
%NoSave
%Mem=1900MB
#P OB98/GEN NMR

erre ene a

0 1
  C      -71.050     -75.835      35.480
  O      -69.924     -75.554      34.673
  H      -70.860     -75.464      36.489
  H      -71.220     -76.914      35.526
  H      -71.937     -75.337      35.081
  P      -70.012     -76.003      33.136
  C      -67.471     -76.467      32.839
  O      -68.588     -75.663      32.482
  C      -66.183     -75.678      32.634
  O      -65.950     -75.481      31.220
  C      -66.213     -74.280      33.237
  O      -66.000     -74.291      34.637
  C      -65.099     -73.600      32.459
  O      -63.815     -73.882      33.029
  C      -65.218     -74.243      31.073
  N      -65.209     -72.563      26.253
  C      -64.465     -73.496      26.885
  N      -64.538     -73.895      28.172
  C      -65.521     -73.244      28.814
  C      -66.363     -72.272      28.302
  C      -66.182     -71.932      26.951
  N      -66.922     -70.965      26.314
  N      -67.219     -71.807      29.280
  C      -66.907     -72.491      30.361
  N      -65.890     -73.374      30.127
  O      -70.995     -74.914      32.496
  O      -70.501     -77.394      32.909
  H      -63.694     -74.849      32.968
  H      -71.891     -75.291      32.417
  H      -63.703     -73.978      26.279
  H      -67.379     -72.379      31.329
  H      -64.240     -74.493      30.646
  H      -65.231     -72.519      32.456
  H      -67.163     -73.786      32.996
  H      -65.346     -76.260      33.040
  H      -67.451     -77.361      32.207
  H      -67.574     -76.773      33.885
  H      -66.692     -70.725      25.364
  H      -67.571     -70.409      26.856
  P      -67.137     -73.651      35.568
  C      -65.648     -71.513      35.651
  O      -66.470     -72.429      36.361
  O      -67.372     -74.757      36.701
  O      -68.402     -73.308      34.857
  H      -68.314     -74.776      36.955
  H      -65.285     -70.764      36.324
  H      -66.219     -71.049      34.875
  H      -64.820     -72.037      35.220

 6  7  8  9  10  11  12  13  14  15  25  28  32  33  34  35 0
 6-311+G(2d,p)
 ****
 36  37  40 0
 6-311+G(2d,p)
 ****
 1  2  3  4  5  16  17  18  19  20  21  22  23  24 0
 3-21G
 ****
 26  27  29  30  31  38  39 41  42  43  44  45  46  47  48 0
 3-21G
 ****


