%nproc=1
%NoSave
%Mem=1900MB
#P OB98/GEN NMR

erre ene a

0 1
  C     -285.373     -90.739      38.256
  O     -285.953     -91.366      37.129
  H     -284.971     -91.513      38.917
  H     -286.122     -90.164      38.807
  H     -284.552     -90.085      37.948
  P     -286.686     -90.448      36.042
  C     -284.992     -90.505      34.086
  O     -285.527     -89.759      35.175
  C     -284.178     -89.600      33.164
  O     -283.562     -90.374      32.115
  C     -285.001     -88.525      32.461
  O     -285.330     -87.484      33.355
  C     -284.053     -88.145      31.333
  O     -283.013     -87.277      31.806
  C     -283.476     -89.528      30.945
  N     -284.154     -90.145      29.806
  C     -283.454     -90.139      28.595
  O     -282.337     -89.622      28.526
  N     -284.048     -90.704      27.494
  C     -285.212     -91.262      27.598
  N     -285.743     -91.808      26.472
  C     -285.967     -91.321      28.864
  C     -285.392     -90.739      29.915
  O     -287.716     -89.495      36.564
  O     -287.324     -91.502      35.017
  H     -282.486     -87.029      31.020
  H     -288.249     -91.697      35.257
  H     -286.930     -91.809      28.908
  H     -285.880     -90.738      30.884
  H     -282.410     -89.441      30.698
  H     -284.561     -87.622      30.523
  H     -285.901     -88.966      32.019
  H     -283.371     -89.151      33.757
  H     -285.177     -91.760      25.629
  H     -285.841     -90.931      33.540
  H     -286.555     -92.404      26.468
  H     -284.369     -91.328      34.451
  P     -286.233     -86.239      32.899
  C     -288.373     -86.903      34.159
  O     -287.745     -86.779      32.892
  O     -285.798     -85.568      31.640
  O     -286.216     -85.273      34.174
  H     -285.358     -84.783      34.225
  H     -289.370     -87.269      34.029
  H     -288.404     -85.946      34.637
  H     -287.818     -87.587      34.767

 6  7  8  9  10  11  12  13  14  15  16  26  30  31  32  33  35 0
 6-311+G(2d,p)
 ****
 37  38 0
 6-311+G(2d,p)
 ****
 1  2  3  4  5  17  18  19  20  21  22  23  24  25 0
 3-21G
 ****
 27  28  29  34  36  39  40  41  42  43  44  45  46 0
 3-21G
 ****


