%nproc=1
%NoSave
%Mem=1900MB
#P OB98/GEN NMR

erre ene a

0 1
  C     -125.693    -544.673    -892.560
  O     -124.322    -545.031    -892.450
  P     -123.979    -546.591    -892.250
  C     -123.851    -547.155    -894.790
  O     -123.148    -547.024    -893.560
  C     -122.884    -547.435    -895.930
  O     -122.099    -546.251    -896.200
  C     -121.878    -548.539    -895.640
  O     -122.432    -549.829    -895.850
  C     -120.815    -548.246    -896.700
  O     -121.216    -548.789    -897.960
  C     -120.830    -546.698    -896.750
  N     -116.238    -544.572    -896.980
  C     -117.032    -545.076    -898.000
  N     -116.550    -544.972    -899.250
  N     -118.200    -545.629    -897.790
  C     -118.575    -545.633    -896.490
  C     -117.873    -545.164    -895.400
  C     -116.556    -544.595    -895.630
  O     -115.781    -544.196    -894.770
  N     -118.591    -545.322    -894.240
  C     -119.733    -545.850    -894.630
  N     -119.763    -546.079    -895.980
  O     -125.398    -547.306    -892.470
  O     -123.377    -546.941    -890.930
  H     -121.233    -549.756    -897.870
  H     -125.417    -548.161    -892.000
  H     -115.358    -544.137    -897.190
  H     -120.557    -546.075    -893.970
  H     -120.770    -546.336    -897.780
  H     -119.837    -548.678    -896.450
  H     -115.724    -544.437    -899.480
  H     -121.449    -548.438    -894.640
  H     -117.132    -545.300    -900.000
  H     -123.472    -547.665    -896.820
  H     -124.383    -546.215    -894.990
  H     -124.584    -547.959    -894.680
  P     -121.730    -551.054    -895.080
  C     -122.842    -550.376    -892.840
  O     -122.666    -551.365    -893.820
  O     -120.433    -550.374    -894.440
  O     -121.381    -552.208    -895.950
  H     -119.727    -551.036    -894.300
  H     -122.870    -549.371    -893.260
  H     -122.019    -550.432    -892.110
  H     -123.785    -550.554    -892.310
  H     -125.776    -543.614    -892.688
  H     -126.211    -544.966    -891.671
  H     -126.125    -545.169    -893.404

 3  4  5  6  7  8  9  10  11  12  23  26  30  31  33  0
 6-311+G(2d,p)
 ****
 35  36  37  38 0
 6-311+G(2d,p)
 ****
 1  2  13  14  15  16  17  18  19  20  21  22  24  25  27  28  29 0
 3-21G
 ****
 32  34  39  40  41  42  43  44  45  46  47  48  49 0
 3-21G
 ****


