%nproc=1
%NoSave
%Mem=1900MB
#P OB98/GEN NMR

erre ene a

0 1
  C      101.777    -176.379     -14.349
  O      103.037    -176.736     -14.923
  P      104.090    -177.535     -14.005
  C      105.916    -176.041     -12.929
  O      104.589    -176.560     -12.825
  C      106.274    -175.205     -11.694
  O      105.509    -173.977     -11.712
  C      105.945    -175.882     -10.349
  O      106.936    -176.716      -9.748
  C      105.790    -174.664      -9.436
  O      107.092    -174.228      -8.979
  C      105.180    -173.594     -10.348
  N      101.455    -171.531      -7.516
  C      102.806    -171.480      -7.422
  N      103.730    -172.055      -8.219
  C      103.136    -172.736      -9.207
  C      101.773    -172.896      -9.437
  C      100.904    -172.246      -8.526
  N       99.538    -172.315      -8.624
  N      101.548    -173.679     -10.548
  C      102.756    -174.015     -10.972
  N      103.754    -173.463     -10.202
  O      105.170    -178.254     -14.738
  O      103.145    -178.560     -13.216
  H      107.675    -174.244      -9.756
  H      103.620    -179.414     -13.120
  H      103.199    -170.891      -6.588
  H      102.954    -174.658     -11.824
  H      105.618    -172.607     -10.177
  H      105.201    -174.885      -8.546
  H      104.995    -176.420     -10.407
  H      107.340    -174.947     -11.722
  H      105.991    -175.414     -13.829
  H       98.993    -171.861      -7.909
  H       99.113    -172.881      -9.342
  H      106.586    -176.894     -13.082
  P      106.973    -178.293     -10.021
  C      107.329    -178.889      -7.486
  O      106.506    -178.978      -8.643
  O      108.264    -178.811     -10.570
  O      105.713    -178.507     -10.977
  H      104.852    -178.374     -10.542
  H      106.747    -179.217      -6.618
  H      107.653    -177.856      -7.317
  H      108.204    -179.539      -7.605
  H      101.190    -175.857     -15.075
  H      101.938    -175.748     -13.500
  H      101.261    -177.265     -14.043

 3  4  5  6  7  8  9  10  11  12  22  25  29  30  31  32 0
 6-311+G(2d,p)
 ****
 33  36  37 0
 6-311+G(2d,p)
 ****
 1  2  13  14  15  16  17  18  19  20  21  23  24  26 0
 3-21G
 ****
 27  28  34  35  38  39  40  41  42  43  44  45  46  47  48 0
 3-21G
 ****


