%nproc=1
%NoSave
%Mem=1900MB
#P OB98/GEN NMR

erre ene a

0 1
  C      237.967    -276.564    -563.543
  O      238.169    -276.208    -564.895
  H      237.393    -275.774    -563.056
  H      238.934    -276.660    -563.042
  H      237.416    -277.503    -563.458
  P      238.659    -277.329    -565.924
  C      241.053    -276.402    -566.228
  O      240.247    -277.472    -565.746
  C      242.527    -276.818    -566.318
  O      242.695    -277.786    -567.378
  C      243.398    -275.614    -566.673
  O      244.722    -275.735    -566.160
  C      243.448    -275.665    -568.192
  O      244.565    -274.970    -568.737
  C      243.473    -277.174    -568.426
  N      244.443    -277.900    -573.379
  C      245.251    -277.358    -572.402
  N      246.469    -276.929    -572.799
  N      244.889    -277.228    -571.149
  C      243.617    -277.626    -570.908
  C      242.713    -278.157    -571.802
  C      243.134    -278.333    -573.176
  O      242.454    -278.793    -574.084
  N      241.507    -278.431    -571.194
  C      241.684    -278.058    -569.943
  N      242.950    -277.578    -569.718
  O      238.533    -276.616    -567.355
  O      237.901    -278.620    -565.891
  H      244.567    -274.071    -568.356
  H      238.427    -277.275    -568.057
  H      244.773    -277.988    -574.320
  H      240.934    -278.119    -569.165
  H      244.500    -277.562    -568.350
  H      242.545    -275.187    -568.580
  H      246.721    -276.843    -573.772
  H      242.965    -274.675    -566.319
  H      246.951    -276.270    -572.179
  H      242.840    -277.309    -565.388
  H      240.940    -275.570    -565.520
  H      240.688    -276.061    -567.198
  P      245.054    -274.976    -564.784
  C      245.965    -272.689    -565.706
  O      244.925    -273.399    -565.055
  O      246.625    -275.215    -564.595
  O      244.264    -275.470    -563.618
  H      246.782    -275.877    -563.901
  H      245.693    -271.658    -565.793
  H      246.121    -273.100    -566.682
  H      246.866    -272.773    -565.135

 6  7  8  9  10  11  12  13  14  15  26  29  33  34 0
 6-311+G(2d,p)
 ****
 36  38  39  40  41 0
 6-311+G(2d,p)
 ****
 1  2  3  4  5  16  17  18  19  20  21  22  23  24  25 0
 3-21G
 ****
 27  28  30  31  32  35  37  42  43  44  45  46  47 0
 3-21G
 ****
 48  49 0
 3-21G
 ****


