%nproc=1
%NoSave
%Mem=1900MB
#P OB98/GEN NMR

erre ene a

0 1
  C     -889.760    -693.794    -896.490
  O     -889.560    -694.270    -895.170
  P     -890.620    -695.375    -894.640
  C     -893.200    -695.363    -894.110
  O     -892.060    -694.650    -894.650
  C     -894.290    -694.399    -893.710
  O     -894.590    -693.476    -894.760
  C     -895.610    -695.057    -893.380
  O     -895.580    -695.671    -892.060
  C     -896.570    -693.912    -893.470
  O     -896.640    -693.168    -892.230
  C     -895.940    -693.050    -894.600
  N     -896.700    -693.111    -895.850
  C     -897.960    -692.481    -895.790
  O     -898.370    -691.975    -894.740
  N     -898.750    -692.504    -896.930
  C     -898.280    -693.077    -898.020
  N     -899.100    -693.076    -899.130
  C     -896.980    -693.761    -898.070
  C     -896.240    -693.727    -896.970
  O     -890.280    -695.511    -893.080
  O     -890.550    -696.694    -895.360
  H     -897.040    -693.790    -891.580
  H     -890.500    -696.391    -892.720
  H     -896.670    -694.240    -899.010
  H     -895.260    -694.201    -896.920
  H     -895.880    -692.006    -894.280
  H     -897.600    -694.242    -893.730
  H     -895.870    -695.856    -894.120
  H     -893.950    -693.798    -892.840
  H     -900.000    -692.617    -899.000
  H     -892.870    -695.951    -893.240
  H     -898.840    -693.499    -900.000
  H     -893.550    -696.089    -894.890
  P     -896.280    -697.088    -891.880
  C     -898.700    -697.949    -891.930
  O     -897.840    -696.781    -892.060
  O     -896.120    -697.292    -890.290
  O     -895.720    -698.243    -892.670
  H     -896.450    -698.212    -890.030
  H     -899.750    -697.544    -891.870
  H     -898.470    -698.501    -891.020
  H     -898.550    -698.575    -892.800
  H     -889.005    -693.074    -896.728
  H     -890.724    -693.336    -896.562
  H     -889.702    -694.612    -897.177

 3  4  5  6  7  8  9  10  11  12  13  21  23  27  28  29  30  32 0
 6-311+G(2d,p)
 ****
 34  35 0
 6-311+G(2d,p)
 ****
 1  2  14  15  16  17  18  19  20  22  24  25  26 0
 3-21G
 ****
 31  33  36  37  38  39  40  41  42  43  44  45  46 0
 3-21G
 ****


