%nproc=1
%NoSave
%Mem=1900MB
#P OB98/GEN NMR

erre ene a

0 1
  C        8.021     185.524     -27.027
  O        6.669     185.544     -27.435
  H        8.206     184.596     -26.480
  H        8.229     186.368     -26.364
  H        8.687     185.558     -27.893
  P        6.160     186.737     -28.376
  C        4.924     188.053     -26.537
  O        4.800     187.289     -27.731
  C        3.707     188.962     -26.374
  O        3.542     189.794     -27.543
  C        2.392     188.208     -26.211
  O        2.277     187.671     -24.910
  C        1.399     189.310     -26.548
  O        1.206     190.192     -25.431
  C        2.127     190.044     -27.699
  N        1.661     189.630     -29.023
  C        0.351     189.973     -29.346
  O       -0.395     190.583     -28.583
  N       -0.091     189.546     -30.570
  C        0.602     188.751     -31.437
  O        0.094     188.210     -32.414
  C        2.003     188.484     -31.076
  C        2.455     188.916     -29.898
  O        6.088     186.428     -29.834
  O        7.201     187.919     -28.077
  H        7.855     187.961     -28.801
  H        0.458     190.774     -25.665
  H       -1.055     189.746     -30.796
  H        2.607     187.911     -31.769
  H        3.476     188.705     -29.596
  H        1.986     191.129     -27.612
  H        0.416     188.917     -26.817
  H        2.314     187.419     -26.968
  H        3.885     189.621     -25.514
  H        5.828     188.665     -26.609
  H        5.019     187.374     -25.684
  P        2.598     186.130     -24.619
  C        0.283     185.367     -23.831
  O        1.624     185.632     -23.447
  O        4.041     185.814     -24.401
  O        2.034     185.360     -25.908
  H        2.743     184.799     -26.278
  H       -0.275     185.043     -22.977
  H        0.271     184.600     -24.577
  H       -0.157     186.258     -24.228

 6  7  8  9  10  11  12  13  14  15  16  27  31  32  33  34  35 0
 6-311+G(2d,p)
 ****
 36  37 0
 6-311+G(2d,p)
 ****
 1  2  3  4  5  17  18  19  20  21  22  23  24  25 0
 3-21G
 ****
 26  28  29  30  38  39  40  41  42  43  44  45 0
 3-21G
 ****


