%nproc=1
%NoSave
%Mem=1900MB
#P OB98/GEN NMR

erre ene a

0 1
  C       -0.335       3.249      11.154
  O       -0.575       3.081       9.769
  P        0.683       3.022       8.776
  C        2.814       1.490       8.662
  O        1.720       1.978       9.415
  C        4.129       1.756       9.401
  O        4.432       3.176       9.328
  C        4.113       1.367      10.885
  O        5.424       0.888      11.212
  C        3.841       2.691      11.577
  O        4.256       2.695      12.934
  C        4.622       3.651      10.674
  N        4.190       5.043      10.794
  C        5.170       6.031      10.785
  O        6.374       5.801      10.705
  N        4.715       7.319      10.903
  C        3.420       7.702      11.092
  O        3.072       8.870      11.210
  C        2.435       6.612      11.142
  C        2.858       5.357      10.983
  O        1.353       4.449       9.040
  O        0.316       2.751       7.357
  H        1.279       4.738       9.965
  H        5.205       2.476      12.960
  H        5.405       8.054      10.862
  H        1.398       6.875      11.305
  H        2.151       4.537      11.017
  H        5.695       3.580      10.891
  H        2.766       2.901      11.550
  H        3.370       0.597      11.109
  H        4.932       1.226       8.875
  H        2.842       1.995       7.693
  H        2.679       0.419       8.480
  P        5.577      -0.104      12.470
  C        4.806      -2.569      12.889
  O        4.598      -1.344      12.223
  O        4.805       0.743      13.593
  O        6.985      -0.422      12.852
  H        3.943       1.071      13.292
  H        3.880      -3.149      12.857
  H        5.084      -2.413      13.934
  H        5.593      -3.133      12.381
  H       -1.268       3.269      11.678
  H        0.185       4.170      11.317
  H        0.259       2.435      11.514

 3  4  5  6  7  8  9  10  11  12  13  24  28  29  30  31  32 0
 6-311+G(2d,p)
 ****
 33  34 0
 6-311+G(2d,p)
 ****
 1  2  14  15  16  17  18  19  20  21  22  23  25  26  27 0
 3-21G
 ****
 35  36  37  38  39  40  41  42  43  44  45 0
 3-21G
 ****


