%nproc=1
%NoSave
%Mem=1900MB
#P OB98/GEN NMR

erre ene a

0 1
  C       -8.835     217.699     -61.039
  O       -7.584     217.009     -61.031
  P       -6.988     216.403     -59.667
  C       -5.000     216.795     -58.098
  O       -5.766     217.327     -59.172
  C       -3.501     217.098     -58.207
  O       -2.895     216.346     -59.286
  C       -3.156     218.571     -58.438
  O       -1.913     218.795     -57.762
  C       -2.967     218.628     -59.946
  O       -2.239     219.774     -60.367
  C       -2.292     217.276     -60.205
  N       -2.432     216.840     -61.590
  C       -1.504     215.903     -62.054
  O       -0.588     215.521     -61.327
  N       -1.607     215.453     -63.352
  C       -2.497     215.975     -64.141
  N       -2.535     215.511     -65.419
  C       -3.442     217.028     -63.717
  C       -3.356     217.401     -62.442
  O       -6.682     214.940     -59.710
  O       -8.135     216.702     -58.584
  H       -2.114     219.723     -61.335
  H       -8.114     216.011     -57.893
  H       -4.149     217.449     -64.421
  H       -4.010     218.165     -62.030
  H       -1.218     217.328     -59.967
  H       -3.950     218.661     -60.435
  H       -3.924     219.260     -58.082
  H       -3.028     216.748     -57.276
  H       -1.854     214.802     -65.678
  H       -5.147     215.706     -58.070
  H       -3.110     215.922     -66.145
  H       -5.392     217.193     -57.153
  P       -1.829     219.600     -56.380
  C       -1.004     221.914     -55.651
  O       -1.404     221.102     -56.747
  O       -0.989     218.952     -55.326
  O       -3.350     219.756     -55.900
  H       -3.370     219.976     -54.947
  H       -0.541     222.829     -56.036
  H       -0.278     221.387     -55.020
  H       -1.879     222.183     -55.055
  H       -9.057     218.024     -62.034
  H       -8.778     218.548     -60.391
  H       -9.607     217.041     -60.698

 3  4  5  6  7  8  9  10  11  12  13  23  27  28  29  30  32 0
 6-311+G(2d,p)
 ****
 34  35 0
 6-311+G(2d,p)
 ****
 1  2  14  15  16  17  18  19  20  21  22  24  25  26 0
 3-21G
 ****
 31  33  36  37  38  39  40  41  42  43  44  45  46 0
 3-21G
 ****


