%nproc=1
%NoSave
%Mem=1900MB
#P OB98/GEN NMR

erre ene a

0 1
  C     -208.725     857.572     450.050
  O     -208.937     856.203     450.345
  H     -208.436     857.663     449.000
  H     -207.916     857.962     450.672
  H     -209.640     858.146     450.217
  P     -209.591     855.879     451.770
  C     -211.999     855.123     451.054
  O     -211.177     856.124     451.636
  C     -213.469     855.445     451.301
  O     -213.767     855.430     452.716
  C     -213.888     856.835     450.858
  O     -213.973     856.958     449.457
  C     -215.234     856.961     451.559
  O     -216.288     856.361     450.790
  C     -215.000     856.178     452.873
  N     -214.965     857.053     454.026
  C     -216.144     857.089     454.783
  O     -217.104     856.395     454.462
  N     -216.213     857.942     455.852
  C     -215.204     858.718     456.126
  N     -215.346     859.561     457.187
  C     -213.945     858.707     455.356
  C     -213.894     857.861     454.330
  O     -209.103     857.115     452.665
  O     -209.237     854.539     452.330
  H     -217.090     856.404     451.347
  H     -209.250     857.977     452.251
  H     -213.129     859.358     455.635
  H     -213.012     857.793     453.707
  H     -215.794     855.433     453.024
  H     -215.512     858.008     451.716
  H     -213.212     857.588     451.286
  H     -214.075     854.667     450.807
  H     -216.248     859.571     457.652
  H     -211.751     854.137     451.460
  H     -214.663     860.254     457.445
  H     -211.788     855.103     449.982
  P     -214.139     858.387     448.751
  C     -211.588     858.748     448.824
  O     -212.864     859.272     449.188
  O     -215.449     859.062     448.974
  O     -213.817     858.073     447.217
  H     -212.927     857.712     447.050
  H     -210.820     859.412     449.162
  H     -211.533     858.651     447.760
  H     -211.454     857.788     449.277

 6  7  8  9  10  11  12  13  14  15  16  26  30  31  32  33  35 0
 6-311+G(2d,p)
 ****
 37  38 0
 6-311+G(2d,p)
 ****
 1  2  3  4  5  17  18  19  20  21  22  23  24  25 0
 3-21G
 ****
 27  28  29  34  36  39  40  41  42  43  44  45  46 0
 3-21G
 ****


