%nproc=1
%NoSave
%Mem=1900MB
#P OB98/GEN NMR

erre ene a

0 1
  C       48.681     483.802    -448.297
  O       48.611     482.455    -448.722
  H       48.347     484.445    -449.116
  H       49.712     484.064    -448.042
  H       48.031     483.960    -447.433
  P       49.047     481.340    -447.652
  C       46.601     481.131    -446.789
  O       47.961     481.399    -446.473
  C       45.997     480.211    -445.735
  O       46.657     478.923    -445.769
  C       46.173     480.715    -444.306
  O       45.243     481.731    -443.973
  C       45.973     479.431    -443.516
  O       44.583     479.150    -443.308
  C       46.601     478.375    -444.433
  N       49.324     474.688    -442.178
  C       48.028     474.751    -442.559
  N       47.379     475.766    -443.165
  C       48.220     476.789    -443.403
  C       49.561     476.869    -443.077
  C       50.122     475.750    -442.436
  N       51.438     475.695    -442.027
  N       50.081     478.094    -443.447
  C       49.071     478.739    -443.993
  N       47.929     477.989    -443.993
  O       50.363     481.966    -446.993
  O       49.298     479.983    -448.218
  H       44.158     479.206    -444.185
  H       51.155     481.558    -447.394
  H       47.430     473.871    -442.336
  H       49.117     479.746    -444.393
  H       45.998     477.457    -444.482
  H       46.449     479.500    -442.535
  H       47.199     481.068    -444.155
  H       44.938     480.057    -445.968
  H       46.547     480.643    -447.769
  H       46.053     482.078    -446.836
  H       51.749     474.890    -441.512
  H       52.010     476.525    -442.114
  P       45.432     482.485    -442.574
  C       46.231     484.691    -443.718
  O       46.517     483.646    -442.801
  O       46.201     481.419    -441.662
  O       44.162     482.947    -441.936
  H       45.900     481.494    -440.734
  H       47.054     485.374    -443.748
  H       45.348     485.209    -443.405
  H       46.075     484.278    -444.693

 6  7  8  9  10  11  12  13  14  15  25  28  32  33  34  35 0
 6-311+G(2d,p)
 ****
 36  37  40 0
 6-311+G(2d,p)
 ****
 1  2  3  4  5  16  17  18  19  20  21  22  23  24 0
 3-21G
 ****
 26  27  29  30  31  38  39 41  42  43  44  45  46  47  48 0
 3-21G
 ****


