%nproc=1
%NoSave
%Mem=1900MB
#P OB98/GEN NMR

erre ene a

0 1
  C     -316.772     -86.858     159.766
  O     -317.130     -85.553     160.170
  H     -315.685     -86.971     159.779
  H     -317.207     -87.576     160.466
  H     -317.158     -87.064     158.764
  P     -316.596     -84.340     159.263
  C     -314.461     -83.909     160.684
  O     -315.000     -84.336     159.439
  C     -313.127     -83.207     160.450
  O     -312.115     -84.169     160.085
  C     -313.146     -82.181     159.322
  O     -313.685     -80.938     159.738
  C     -311.660     -82.066     159.027
  O     -311.024     -81.252     160.030
  C     -311.203     -83.525     159.154
  N     -308.836     -84.159     154.661
  C     -308.586     -83.338     155.704
  N     -309.268     -83.228     156.862
  C     -310.305     -84.081     156.891
  C     -310.687     -84.970     155.900
  C     -309.893     -85.000     154.739
  N     -310.153     -85.824     153.667
  N     -311.828     -85.656     156.272
  C     -312.104     -85.208     157.481
  N     -311.218     -84.248     157.895
  O     -317.052     -83.035     160.071
  O     -317.069     -84.331     157.848
  H     -311.402     -80.357     159.945
  H     -317.073     -82.263     159.477
  H     -307.726     -82.681     155.590
  H     -312.931     -85.548     158.094
  H     -310.192     -83.613     159.567
  H     -311.451     -81.602     158.060
  H     -313.661     -82.568     158.434
  H     -312.818     -82.740     161.395
  H     -314.304     -84.781     161.325
  H     -309.641     -85.638     152.820
  H     -311.021     -86.342     153.658
  H     -315.169     -83.230     161.167
  P     -314.653     -80.175     158.709
  C     -313.256     -78.025     158.256
  O     -313.694     -79.294     157.774
  O     -315.378     -79.086     159.633
  O     -315.628     -81.054     157.997
  H     -316.250     -78.844     159.263
  H     -312.628     -77.563     157.523
  H     -312.706     -78.159     159.164
  H     -314.105     -77.402     158.442

 6  7  8  9  10  11  12  13  14  15  25  28  32  33  34  35 0
 6-311+G(2d,p)
 ****
 36  39  40 0
 6-311+G(2d,p)
 ****
 1  2  3  4  5  16  17  18  19  20  21  22  23  24 0
 3-21G
 ****
 26  27  29  30  31  37  38  41  42  43  44  45  46  47 0
 3-21G
 ****
 48 0
 3-21G
 ****


