%nproc=1
%NoSave
%Mem=1900MB
#P OB98/GEN NMR

erre ene a

0 1
  C      -60.285    -126.152    -194.517
  O      -60.514    -125.906    -195.889
  H      -59.802    -127.129    -194.412
  H      -61.240    -126.174    -193.983
  H      -59.636    -125.390    -194.082
  P      -60.911    -124.427    -196.356
  C      -60.471    -122.933    -198.413
  O      -60.219    -124.177    -197.780
  C      -59.576    -122.752    -199.647
  O      -58.188    -122.725    -199.220
  C      -59.717    -123.928    -200.623
  O      -59.449    -123.549    -201.969
  C      -58.630    -124.890    -200.150
  O      -58.213    -125.798    -201.161
  C      -57.542    -123.912    -199.702
  N      -52.977    -125.906    -198.603
  C      -53.547    -125.660    -199.837
  N      -52.803    -125.982    -200.921
  N      -54.745    -125.160    -199.995
  C      -55.403    -124.956    -198.829
  C      -54.955    -125.184    -197.548
  C      -53.612    -125.701    -197.380
  O      -53.071    -125.960    -196.315
  N      -55.914    -124.856    -196.617
  C      -56.936    -124.441    -197.326
  N      -56.672    -124.459    -198.676
  O      -60.053    -123.482    -195.383
  O      -62.373    -124.100    -196.291
  H      -57.732    -125.288    -201.838
  H      -60.460    -122.598    -195.326
  H      -52.038    -126.265    -198.534
  H      -57.881    -124.106    -196.925
  H      -56.910    -123.626    -200.560
  H      -59.034    -125.484    -199.323
  H      -51.964    -126.544    -200.840
  H      -60.699    -124.403    -200.573
  H      -53.307    -126.100    -201.803
  H      -59.782    -121.786    -200.126
  H      -60.275    -122.148    -197.675
  H      -61.524    -122.853    -198.689
  P      -60.680    -123.159    -202.918
  C      -60.848    -121.925    -205.251
  O      -60.146    -122.772    -204.373
  O      -61.202    -121.776    -202.316
  O      -61.768    -124.197    -202.972
  H      -62.106    -121.876    -201.968
  H      -60.294    -121.815    -206.160
  H      -60.977    -120.966    -204.794
  H      -61.806    -122.350    -205.466

 6  7  8  9  10  11  12  13  14  15  26  29  33  34 0
 6-311+G(2d,p)
 ****
 36  38  39  40  41 0
 6-311+G(2d,p)
 ****
 1  2  3  4  5  16  17  18  19  20  21  22  23  24  25 0
 3-21G
 ****
 27  28  30  31  32  35  37  42  43  44  45  46  47 0
 3-21G
 ****
 48  49 0
 3-21G
 ****


