%nproc=1
%NoSave
%Mem=1900MB
#P OB98/GEN NMR

erre ene a

0 1
  C      422.355    -301.823       7.367
  O      423.501    -302.571       7.732
  P      423.906    -302.639       9.296
  C      424.105    -305.244       9.444
  O      423.382    -304.072       9.807
  C      423.553    -306.474      10.197
  O      423.565    -306.205      11.631
  C      422.122    -306.874       9.797
  O      422.079    -308.326       9.820
  C      421.290    -306.284      10.919
  O      420.029    -306.960      11.038
  C      422.226    -306.502      12.114
  N      421.896    -305.657      13.257
  C      420.970    -306.175      14.161
  O      420.389    -307.257      13.998
  N      420.697    -305.386      15.255
  C      421.172    -304.126      15.481
  O      420.911    -303.453      16.463
  C      422.058    -303.578      14.421
  C      422.353    -304.363      13.379
  O      422.850    -301.603       9.902
  O      425.340    -302.340       9.545
  H      421.972    -301.620       9.473
  H      419.495    -306.510      11.735
  H      420.068    -305.759      15.938
  H      422.398    -302.566      14.521
  H      422.981    -303.984      12.569
  H      422.219    -307.549      12.441
  H      421.105    -305.218      10.741
  H      421.845    -306.507       8.810
  H      424.236    -307.316       9.999
  H      425.174    -305.137       9.691
  H      424.032    -305.374       8.350
  P      421.632    -309.087       8.489
  C      424.002    -309.860       7.657
  O      422.866    -309.033       7.456
  O      420.604    -308.020       7.871
  O      421.009    -310.425       8.715
  H      420.945    -307.120       7.867
  H      424.594    -309.846       6.731
  H      423.691    -310.888       7.846
  H      424.596    -309.492       8.482
  H      422.219    -301.873       6.307
  H      422.486    -300.803       7.662
  H      421.494    -302.228       7.857

 3  4  5  6  7  8  9  10  11  12  13  24  28  29  30  31  32 0
 6-311+G(2d,p)
 ****
 33  34 0
 6-311+G(2d,p)
 ****
 1  2  14  15  16  17  18  19  20  21  22  23  25  26  27 0
 3-21G
 ****
 35  36  37  38  39  40  41  42  43  44  45 0
 3-21G
 ****


