%nproc=1
%NoSave
%Mem=1900MB
#P OB98/GEN NMR

erre ene a

0 1
  C      833.209     316.798     512.571
  O      832.856     315.437     512.411
  H      833.055     317.316     511.614
  H      834.264     316.881     512.847
  H      832.582     317.271     513.333
  P      832.840     314.538     513.734
  C      834.829     313.033     512.906
  O      834.309     313.908     513.899
  C      836.285     313.369     512.615
  O      836.467     314.786     512.422
  C      837.233     313.043     513.767
  O      837.434     311.656     513.926
  C      838.482     313.794     513.310
  O      839.197     313.059     512.302
  C      837.862     315.085     512.713
  N      837.997     316.234     513.607
  C      839.304     316.680     513.821
  O      840.255     316.121     513.263
  N      839.507     317.731     514.676
  C      838.493     318.304     515.257
  N      838.758     319.336     516.101
  C      837.092     317.880     515.035
  C      836.923     316.840     514.218
  O      831.966     313.275     513.286
  O      832.351     315.226     514.966
  H      838.529     312.750     511.665
  H      832.287     312.845     512.475
  H      836.286     318.384     515.532
  H      835.927     316.465     513.995
  H      838.342     315.331     511.758
  H      839.182     313.960     514.133
  H      836.885     313.503     514.696
  H      836.584     312.859     511.692
  H      839.730     319.583     516.247
  H      834.234     313.079     511.997
  H      838.061     319.822     516.633
  H      834.752     312.014     513.298
  P      837.049     310.936     515.312
  C      839.588     310.611     515.637
  O      838.358     311.024     516.238
  O      836.470     309.564     515.168
  O      836.069     311.987     516.014
  H      836.463     312.865     516.182
  H      840.383     310.714     516.345
  H      839.790     311.222     514.783
  H      839.511     309.588     515.333

 6  7  8  9  10  11  12  13  14  15  16  26  30  31  32  33  35 0
 6-311+G(2d,p)
 ****
 37  38 0
 6-311+G(2d,p)
 ****
 1  2  3  4  5  17  18  19  20  21  22  23  24  25 0
 3-21G
 ****
 27  28  29  34  36  39  40  41  42  43  44  45  46 0
 3-21G
 ****


