%nproc=1
%NoSave
%Mem=1900MB
#P OB98/GEN NMR

erre ene a

0 1
  C      180.397    -336.465     -93.413
  O      179.853    -335.204     -93.072
  P      178.694    -334.561     -93.971
  C      178.634    -333.566     -96.376
  O      179.271    -334.433     -95.462
  C      179.176    -333.769     -97.796
  O      178.891    -335.134     -98.192
  C      178.531    -332.887     -98.861
  O      179.379    -332.861    -100.010
  C      177.268    -333.655     -99.176
  O      176.716    -333.288    -100.441
  C      177.729    -335.132     -99.057
  N      176.669    -335.990     -98.499
  C      175.573    -336.240     -99.313
  O      175.499    -335.848    -100.479
  N      174.524    -336.887     -98.721
  C      174.459    -337.250     -97.407
  O      173.422    -337.536     -96.829
  C      175.730    -337.170     -96.666
  C      176.755    -336.529     -97.229
  O      178.640    -333.047     -93.452
  O      177.371    -335.234     -93.859
  H      175.925    -333.862    -100.579
  H      177.935    -332.945     -92.785
  H      173.675    -336.941     -99.271
  H      175.765    -337.586     -95.667
  H      177.691    -336.408     -96.687
  H      178.020    -335.536    -100.032
  H      176.512    -333.434     -98.413
  H      178.315    -331.865     -98.527
  H      180.262    -333.638     -97.794
  H      178.780    -332.531     -96.050
  H      177.552    -333.742     -96.377
  P      179.442    -331.508    -100.869
  C      177.864    -330.319    -102.506
  O      178.134    -331.509    -101.804
  O      180.730    -331.232    -101.562
  O      179.098    -330.376     -99.787
  H      179.389    -329.505    -100.112
  H      177.338    -330.565    -103.435
  H      178.786    -329.773    -102.754
  H      177.222    -329.677    -101.898
  H      181.153    -336.731     -92.704
  H      180.827    -336.415     -94.391
  H      179.622    -337.203     -93.401

 3  4  5  6  7  8  9  10  11  12  13  23  28  29  30  31  32 0
 6-311+G(2d,p)
 ****
 33  34 0
 6-311+G(2d,p)
 ****
 1  2  14  15  16  17  18  19  20  21  22  24  25  26  27 0
 3-21G
 ****
 35  36  37  38  39  40  41  42  43  44  45 0
 3-21G
 ****


