%nproc=1
%NoSave
%Mem=1900MB
#P OB98/GEN NMR

erre ene a

0 1
  C     -351.311    -479.222     -81.695
  O     -351.676    -478.257     -82.667
  P     -350.833    -478.233     -84.035
  C     -348.430    -478.737     -83.169
  O     -349.349    -477.765     -83.654
  C     -347.064    -478.093     -82.932
  O     -346.398    -477.868     -84.190
  C     -347.113    -476.737     -82.244
  O     -347.373    -476.873     -80.857
  C     -345.720    -476.201     -82.583
  O     -344.742    -476.789     -81.713
  C     -345.528    -476.715     -84.026
  N     -344.301    -472.114     -85.911
  C     -343.804    -472.827     -84.874
  N     -344.200    -474.035     -84.421
  C     -345.210    -474.517     -85.159
  C     -345.832    -473.896     -86.229
  C     -345.343    -472.636     -86.608
  N     -345.854    -471.917     -87.663
  N     -346.856    -474.680     -86.725
  C     -346.844    -475.763     -85.971
  N     -345.862    -475.715     -85.021
  O     -351.433    -476.969     -84.811
  O     -350.923    -479.485     -84.850
  H     -343.978    -476.181     -81.685
  H     -351.438    -477.125     -85.778
  H     -342.978    -472.368     -84.344
  H     -347.519    -476.600     -86.075
  H     -344.502    -477.048     -84.218
  H     -345.642    -475.114     -82.487
  H     -347.879    -476.102     -82.705
  H     -346.455    -478.802     -82.345
  H     -348.320    -479.535     -83.907
  H     -345.538    -470.966     -87.773
  H     -346.711    -472.239     -88.089
  H     -348.828    -479.167     -82.244
  P     -348.723    -476.208     -80.295
  C     -348.157    -473.728     -80.630
  O     -348.240    -474.793     -79.702
  O     -348.980    -477.074     -78.972
  O     -349.850    -476.159     -81.268
  H     -348.180    -477.151     -78.426
  H     -347.868    -472.823     -80.089
  H     -349.120    -473.566     -81.115
  H     -347.391    -473.942     -81.381
  H     -351.949    -479.127     -80.841
  H     -350.295    -479.064     -81.400
  H     -351.414    -480.203     -82.110

 3  4  5  6  7  8  9  10  11  12  22  25  29  30  31  32 0
 6-311+G(2d,p)
 ****
 33  36  37 0
 6-311+G(2d,p)
 ****
 1  2  13  14  15  16  17  18  19  20  21  23  24  26 0
 3-21G
 ****
 27  28  34  35  38  39  40  41  42  43  44  45  46  47  48 0
 3-21G
 ****


