%nproc=1
%NoSave
%Mem=1900MB
#P OB98/GEN NMR

erre ene a

0 1
  C      -58.685    -178.816    -334.866
  O      -59.696    -179.730    -335.242
  H      -58.478    -178.125    -335.686
  H      -59.031    -178.244    -333.999
  H      -57.773    -179.352    -334.590
  P      -59.378    -180.655    -336.514
  C      -60.466    -178.801    -337.959
  O      -59.367    -179.686    -337.798
  C      -60.696    -178.514    -339.440
  O      -59.541    -177.789    -339.944
  C      -60.884    -179.770    -340.304
  O      -62.051    -179.651    -341.125
  C      -59.659    -179.791    -341.201
  O      -59.930    -180.307    -342.502
  C      -59.249    -178.323    -341.241
  N      -55.825    -178.550    -345.019
  C      -57.169    -178.388    -345.036
  N      -58.010    -178.239    -343.991
  C      -57.332    -178.235    -342.830
  C      -55.961    -178.365    -342.655
  C      -55.198    -178.551    -343.819
  N      -53.838    -178.775    -343.796
  N      -55.633    -178.320    -341.311
  C      -56.789    -178.208    -340.686
  N      -57.844    -178.169    -341.564
  O      -60.725    -181.505    -336.695
  O      -58.186    -181.540    -336.358
  H      -59.130    -180.171    -343.040
  H      -60.514    -182.454    -336.591
  H      -57.627    -178.387    -346.023
  H      -56.924    -178.200    -339.610
  H      -59.834    -177.756    -341.977
  H      -58.883    -180.412    -340.738
  H      -60.953    -180.686    -339.709
  H      -61.563    -177.847    -339.538
  H      -60.260    -177.859    -337.438
  H      -53.385    -179.013    -344.664
  H      -53.381    -178.885    -342.897
  H      -61.360    -179.262    -337.516
  P      -63.382    -180.374    -340.582
  C      -63.113    -182.522    -342.023
  O      -63.173    -181.962    -340.713
  O      -64.468    -180.026    -341.704
  O      -63.815    -179.898    -339.231
  H      -65.237    -179.584    -341.296
  H      -62.972    -183.580    -341.952
  H      -62.295    -182.088    -342.559
  H      -64.027    -182.318    -342.540

 6  7  8  9  10  11  12  13  14  15  25  28  32  33  34  35 0
 6-311+G(2d,p)
 ****
 36  39  40 0
 6-311+G(2d,p)
 ****
 1  2  3  4  5  16  17  18  19  20  21  22  23  24 0
 3-21G
 ****
 26  27  29  30  31  37  38  41  42  43  44  45  46  47  48 0
 3-21G
 ****


