%nproc=1
%NoSave
%Mem=1900MB
#P OB98/GEN NMR

erre ene a

0 1
  C      -22.567    -112.798     229.281
  O      -23.462    -112.976     230.361
  H      -23.100    -112.994     228.347
  H      -21.732    -113.498     229.368
  H      -22.191    -111.771     229.265
  P      -22.878    -112.691     231.827
  C      -22.951    -115.090     232.848
  O      -23.538    -113.798     232.784
  C      -24.042    -116.161     232.965
  O      -24.765    -115.954     234.213
  C      -25.079    -116.108     231.830
  O      -25.576    -117.439     231.607
  C      -26.177    -115.264     232.455
  O      -27.377    -115.404     231.734
  C      -26.161    -115.826     233.871
  N      -30.567    -113.485     234.923
  C      -30.209    -114.335     233.936
  N      -29.014    -114.925     233.731
  C      -28.144    -114.578     234.695
  C      -28.361    -113.722     235.759
  C      -29.642    -113.154     235.856
  N      -30.004    -112.269     236.844
  N      -27.213    -113.594     236.521
  C      -26.324    -114.366     235.927
  N      -26.844    -114.980     234.822
  O      -23.608    -111.333     232.255
  O      -21.394    -112.584     231.921
  H      -27.636    -116.344     231.660
  H      -23.053    -110.568     232.019
  H      -30.988    -114.573     233.215
  H      -25.300    -114.507     236.244
  H      -26.615    -116.823     233.930
  H      -25.910    -114.203     232.447
  H      -24.683    -115.703     230.897
  H      -23.570    -117.148     233.031
  H      -22.293    -115.130     233.721
  H      -22.363    -115.267     231.943
  H      -30.936    -111.886     236.825
  H      -29.317    -111.984     237.527
  P      -25.332    -118.133     230.179
  C      -27.839    -118.409     229.506
  O      -26.593    -119.036     229.771
  O      -24.225    -119.239     230.532
  O      -24.827    -117.227     229.103
  H      -23.518    -119.221     229.862
  H      -28.565    -119.152     229.251
  H      -27.728    -117.724     228.691
  H      -28.163    -117.878     230.376

 6  7  8  9  10  11  12  13  14  15  25  28  32  33  34  35 0
 6-311+G(2d,p)
 ****
 36  37  40 0
 6-311+G(2d,p)
 ****
 1  2  3  4  5  16  17  18  19  20  21  22  23  24 0
 3-21G
 ****
 26  27  29  30  31  38  39 41  42  43  44  45  46  47  48 0
 3-21G
 ****


