%nproc=1
%NoSave
%Mem=1900MB
#P OB98/GEN NMR

erre ene a

0 1
  C       74.129     -27.624     204.648
  O       74.072     -28.406     205.827
  H       73.395     -26.817     204.730
  H       73.879     -28.241     203.780
  H       75.125     -27.187     204.525
  P       75.197     -29.542     205.991
  C       73.896     -31.822     206.099
  O       74.488     -30.738     206.793
  C       72.454     -32.039     206.565
  O       71.577     -31.190     205.778
  C       71.967     -33.482     206.413
  O       71.093     -33.782     207.502
  C       71.163     -33.446     205.122
  O       70.213     -34.503     205.052
  C       70.569     -32.028     205.178
  N       70.174     -31.537     203.859
  C       68.911     -31.925     203.395
  O       68.198     -32.659     204.082
  N       68.505     -31.513     202.153
  C       69.312     -30.827     201.408
  N       68.859     -30.468     200.175
  C       70.670     -30.431     201.836
  C       71.027     -30.807     203.063
  O       76.172     -28.883     207.077
  O       75.867     -29.937     204.719
  H       70.662     -35.344     205.287
  H       75.701     -28.470     207.820
  H       71.310     -29.868     201.172
  H       72.002     -30.553     203.463
  H       69.687     -32.010     205.832
  H       71.836     -33.540     204.259
  H       72.785     -34.205     206.385
  H       72.370     -31.702     207.606
  H       67.930     -30.780     199.913
  H       74.470     -32.739     206.263
  H       69.420     -29.982     199.489
  H       73.918     -31.593     205.027
  P       71.533     -34.876     208.588
  C       69.195     -35.798     209.206
  O       70.345     -35.081     209.646
  O       72.887     -34.688     209.184
  O       71.481     -36.246     207.746
  H       72.254     -36.784     208.007
  H       68.486     -35.861     210.005
  H       69.483     -36.784     208.906
  H       68.752     -35.288     208.376

 6  7  8  9  10  11  12  13  14  15  16  26  30  31  32  33  35 0
 6-311+G(2d,p)
 ****
 37  38 0
 6-311+G(2d,p)
 ****
 1  2  3  4  5  17  18  19  20  21  22  23  24  25 0
 3-21G
 ****
 27  28  29  34  36  39  40  41  42  43  44  45  46 0
 3-21G
 ****


