%nproc=1
%NoSave
%Mem=1900MB
#P OB98/GEN NMR

erre ene a

0 1
  C     -511.895    -617.683    -187.359
  O     -511.685    -617.697    -185.964
  H     -512.632    -618.449    -187.612
  H     -510.966    -617.902    -187.896
  H     -512.284    -616.710    -187.675
  P     -510.554    -616.734    -185.353
  C     -510.333    -618.475    -183.452
  O     -510.433    -617.101    -183.796
  C     -509.883    -618.641    -181.992
  O     -508.590    -617.992    -181.822
  C     -510.845    -618.010    -180.968
  O     -510.744    -618.779    -179.759
  C     -510.228    -616.638    -180.782
  O     -510.743    -615.990    -179.647
  C     -508.737    -617.000    -180.780
  N     -507.882    -615.843    -181.000
  C     -507.274    -615.300    -179.858
  O     -507.485    -615.791    -178.751
  N     -506.468    -614.202    -180.003
  C     -506.329    -613.650    -181.165
  N     -505.533    -612.555    -181.237
  C     -507.000    -614.159    -182.388
  C     -507.747    -615.247    -182.231
  O     -510.710    -615.278    -185.642
  O     -509.189    -617.311    -185.963
  H     -511.727    -615.984    -179.665
  H     -508.872    -616.718    -186.673
  H     -506.869    -613.647    -183.331
  H     -508.277    -615.696    -183.066
  H     -508.454    -617.476    -179.832
  H     -510.458    -615.994    -181.635
  H     -511.881    -617.983    -181.314
  H     -509.730    -619.712    -181.790
  H     -505.099    -612.236    -180.377
  H     -509.596    -618.930    -184.125
  H     -505.367    -612.025    -182.089
  H     -511.299    -618.974    -183.592
  P     -511.626    -620.086    -179.480
  C     -512.278    -619.687    -177.013
  O     -511.522    -620.475    -177.930
  O     -511.351    -621.220    -180.418
  O     -513.153    -619.592    -179.633
  H     -513.691    -620.336    -179.965
  H     -512.121    -620.049    -176.018
  H     -513.318    -619.754    -177.257
  H     -511.963    -618.666    -177.075

 6  7  8  9  10  11  12  13  14  15  16  26  30  31  32  33  35 0
 6-311+G(2d,p)
 ****
 37  38 0
 6-311+G(2d,p)
 ****
 1  2  3  4  5  17  18  19  20  21  22  23  24  25 0
 3-21G
 ****
 27  28  29  34  36  39  40  41  42  43  44  45  46 0
 3-21G
 ****


