%nproc=1
%NoSave
%Mem=1900MB
#P OB98/GEN NMR

erre ene a

0 1
  C      608.912     452.307     569.331
  O      607.956     452.099     568.309
  H      608.785     453.319     569.726
  H      609.923     452.203     568.934
  H      608.754     451.588     570.144
  P      607.994     450.672     567.571
  C      606.342     449.387     569.075
  O      606.537     450.052     567.831
  C      604.923     448.820     569.158
  O      604.885     447.829     570.215
  C      603.863     449.874     569.476
  O      602.672     449.583     568.739
  C      603.601     449.685     570.962
  O      602.305     450.129     571.343
  C      603.832     448.180     571.124
  N      602.006     446.875     575.706
  C      601.408     447.015     574.506
  N      601.975     447.354     573.325
  C      603.305     447.505     573.468
  C      604.050     447.401     574.624
  C      603.345     447.078     575.798
  N      603.935     446.959     577.030
  N      605.384     447.674     574.372
  C      605.443     447.925     573.078
  N      604.204     447.849     572.493
  O      609.142     449.788     567.935
  O      607.919     451.104     566.033
  H      602.233     451.092     571.140
  H      607.254     451.802     565.886
  H      600.339     446.842     574.485
  H      606.341     448.177     572.530
  H      602.939     447.595     570.879
  H      604.340     450.256     571.542
  H      604.196     450.890     569.246
  H      604.701     448.291     568.224
  H      606.506     450.081     569.904
  H      603.359     446.707     577.817
  H      604.938     447.077     577.117
  H      607.081     448.579     569.143
  P      602.174     450.646     567.648
  C      602.948     449.670     565.384
  O      601.854     449.864     566.278
  O      603.005     451.878     567.499
  O      600.699     451.011     568.170
  H      600.537     451.966     568.016
  H      602.611     449.142     564.517
  H      603.712     449.102     565.873
  H      603.343     450.621     565.092

 6  7  8  9  10  11  12  13  14  15  25  28  32  33  34  35 0
 6-311+G(2d,p)
 ****
 36  39  40 0
 6-311+G(2d,p)
 ****
 1  2  3  4  5  16  17  18  19  20  21  22  23  24 0
 3-21G
 ****
 26  27  29  30  31  37  38  41  42  43  44  45  46  47 0
 3-21G
 ****
 48 0
 3-21G
 ****


