%nproc=1
%NoSave
%Mem=1900MB
#P OB98/GEN NMR

erre ene a

0 1
  C      322.575    -246.383     -11.079
  O      323.299    -246.652      -9.896
  H      323.190    -245.760     -11.736
  H      321.652    -245.842     -10.848
  H      322.337    -247.317     -11.598
  P      322.518    -247.471      -8.755
  C      321.946    -245.304      -7.418
  O      321.465    -246.401      -8.182
  C      320.859    -244.828      -6.460
  O      319.767    -244.217      -7.188
  C      320.222    -245.944      -5.636
  O      321.027    -246.345      -4.537
  C      318.946    -245.255      -5.182
  O      319.248    -244.328      -4.124
  C      318.537    -244.508      -6.472
  N      317.624    -245.281      -7.318
  C      316.260    -245.182      -7.022
  O      315.869    -244.484      -6.087
  N      315.364    -245.905      -7.777
  C      315.789    -246.655      -8.746
  N      314.863    -247.360      -9.444
  C      317.214    -246.776      -9.100
  C      318.067    -246.072      -8.357
  O      323.589    -247.578      -7.569
  O      321.926    -248.777      -9.171
  H      318.418    -243.865      -3.910
  H      323.159    -247.960      -6.765
  H      317.525    -247.422      -9.911
  H      319.130    -246.112      -8.557
  H      318.064    -243.549      -6.235
  H      318.197    -245.951      -4.801
  H      319.954    -246.803      -6.259
  H      321.292    -244.053      -5.812
  H      313.898    -247.306      -9.139
  H      322.220    -244.499      -8.108
  H      315.113    -248.101     -10.092
  H      322.829    -245.602      -6.843
  P      320.927    -247.878      -4.064
  C      318.952    -247.361      -2.455
  O      319.421    -248.118      -3.562
  O      321.770    -247.890      -2.705
  O      321.441    -248.879      -5.054
  H      322.293    -248.708      -2.620
  H      317.939    -247.631      -2.242
  H      319.001    -246.318      -2.690
  H      319.563    -247.563      -1.600

 6  7  8  9  10  11  12  13  14  15  16  26  30  31  32  33  35 0
 6-311+G(2d,p)
 ****
 37  38 0
 6-311+G(2d,p)
 ****
 1  2  3  4  5  17  18  19  20  21  22  23  24  25 0
 3-21G
 ****
 27  28  29  34  36  39  40  41  42  43  44  45  46 0
 3-21G
 ****


