%nproc=1
%NoSave
%Mem=1900MB
#P OB98/GEN NMR

erre ene a

0 1
  C      963.154    1851.055    -896.950
  O      962.353    1852.012    -896.300
  P      963.082    1853.147    -895.430
  C      961.050    1854.744    -895.810
  O      961.918    1854.126    -894.890
  C      959.716    1855.046    -895.180
  O      959.895    1855.724    -893.910
  C      958.820    1855.922    -895.990
  O      958.198    1855.210    -897.070
  C      957.824    1856.436    -894.960
  O      956.727    1855.519    -894.790
  C      958.696    1856.479    -893.680
  N      959.011    1857.847    -893.260
  C      958.523    1858.204    -891.990
  O      957.876    1857.428    -891.310
  N      958.749    1859.488    -891.560
  C      959.409    1860.335    -892.320
  N      959.617    1861.585    -891.810
  C      959.905    1859.977    -893.650
  C      959.680    1858.750    -894.050
  O      963.816    1854.045    -896.540
  O      964.050    1852.605    -894.380
  H      956.141    1855.648    -895.560
  H      964.600    1854.480    -896.180
  H      960.449    1860.733    -894.260
  H      959.994    1858.408    -895.050
  H      958.169    1855.973    -892.850
  H      957.393    1857.398    -895.220
  H      959.382    1856.798    -896.400
  H      959.218    1854.088    -894.970
  H      959.231    1861.804    -890.900
  H      960.898    1854.058    -896.690
  H      960.150    1862.286    -892.300
  H      961.543    1855.668    -896.180
  P      957.447    1856.052    -898.200
  C      957.020    1853.654    -899.010
  O      956.521    1854.965    -898.940
  O      958.591    1856.286    -899.280
  O      956.762    1857.319    -897.810
  H      958.285    1856.868    -900.000
  H      956.241    1852.987    -899.390
  H      957.312    1853.305    -898.020
  H      957.848    1853.584    -899.700
  H      962.529    1850.371    -897.485
  H      963.729    1850.519    -896.224
  H      963.813    1851.547    -897.635

 3  4  5  6  7  8  9  10  11  12  13  21  23  27  28  29  30  32 0
 6-311+G(2d,p)
 ****
 34  35 0
 6-311+G(2d,p)
 ****
 1  2  14  15  16  17  18  19  20  22  24  25  26 0
 3-21G
 ****
 31  33  36  37  38  39  40  41  42  43  44  45  46 0
 3-21G
 ****


