%nproc=1
%NoSave
%Mem=1900MB
#P OB98/GEN NMR

erre ene a

0 1
  C     -540.733      23.787    -352.688
  O     -541.014      22.498    -353.200
  P     -541.768      21.417    -352.285
  C     -542.817      20.123    -354.241
  O     -541.929      20.062    -353.129
  C     -542.323      19.214    -355.371
  O     -541.085      19.713    -355.928
  C     -542.013      17.797    -354.927
  O     -543.188      17.044    -354.670
  C     -541.178      17.303    -356.105
  O     -542.019      16.897    -357.190
  C     -540.384      18.571    -356.473
  N     -539.001      18.519    -356.015
  C     -538.162      17.611    -356.668
  O     -538.617      16.849    -357.526
  N     -536.838      17.585    -356.326
  C     -536.409      18.300    -355.337
  N     -535.071      18.279    -355.084
  C     -537.292      19.154    -354.514
  C     -538.563      19.231    -354.919
  O     -543.022      21.896    -351.631
  O     -540.679      21.018    -351.182
  H     -541.087      21.079    -350.290
  H     -541.435      16.527    -357.877
  H     -536.905      19.680    -353.655
  H     -539.288      19.844    -354.394
  H     -540.387      18.714    -357.562
  H     -540.558      16.438    -355.840
  H     -541.389      17.811    -354.019
  H     -543.085      19.210    -356.165
  H     -534.495      17.700    -355.677
  H     -542.868      21.158    -354.598
  H     -534.598      19.021    -354.572
  H     -543.816      19.820    -353.919
  P     -543.244      16.233    -353.292
  C     -545.835      16.271    -353.154
  O     -544.665      15.484    -353.231
  O     -543.384      17.386    -352.186
  O     -542.053      15.366    -353.033
  H     -542.883      17.139    -351.382
  H     -546.687      15.668    -353.479
  H     -545.766      17.148    -353.800
  H     -545.997      16.588    -352.126
  H     -540.230      24.366    -353.435
  H     -540.108      23.699    -351.824
  H     -541.648      24.271    -352.418

 3  4  5  6  7  8  9  10  11  12  13  24  27  28  29  30  32 0
 6-311+G(2d,p)
 ****
 34  35 0
 6-311+G(2d,p)
 ****
 1  2  14  15  16  17  18  19  20  21  22  23  25  26 0
 3-21G
 ****
 31  33  36  37  38  39  40  41  42  43  44  45  46 0
 3-21G
 ****


