%nproc=1
%NoSave
%Mem=1900MB
#P OB98/GEN NMR

erre ene a

0 1
  C      291.578      95.142     517.532
  O      290.972      96.357     517.946
  P      291.741      97.391     518.907
  C      291.071      99.442     517.478
  O      292.126      98.632     517.968
  C      291.629     100.606     516.658
  O      292.489     101.408     517.512
  C      292.455     100.179     515.435
  O      292.220     101.148     514.406
  C      293.882     100.278     515.943
  O      294.829     100.413     514.894
  C      293.774     101.494     516.870
  N      294.850     101.540     517.856
  C      295.959     102.340     517.568
  O      296.035     102.961     516.508
  N      296.969     102.419     518.495
  C      296.916     101.698     519.573
  N      297.913     101.856     520.486
  C      295.816     100.759     519.864
  C      294.819     100.750     518.981
  O      292.877      96.811     519.671
  O      290.585      98.011     519.820
  H      295.703     100.587     515.290
  H      290.384      97.457     520.615
  H      295.832     100.157     520.760
  H      293.958     100.112     519.125
  H      293.772     102.419     516.282
  H      294.132      99.375     516.508
  H      292.185      99.185     515.070
  H      290.789     101.243     516.348
  H      298.550     102.629     520.334
  H      290.521      99.845     518.334
  H      297.777     101.593     521.458
  H      290.383      98.833     516.880
  P      291.834     100.619     512.940
  C      289.289     101.067     512.741
  O      290.312     100.121     512.973
  O      292.636      99.223     512.878
  O      292.241     101.487     511.792
  H      292.822      99.007     511.949
  H      288.321     100.556     512.795
  H      289.392     101.509     511.747
  H      289.311     101.848     513.504
  H      290.902      94.603     516.901
  H      291.813      94.549     518.392
  H      292.476      95.357     516.991

 3  4  5  6  7  8  9  10  11  12  13  23  27  28  29  30  32 0
 6-311+G(2d,p)
 ****
 34  35 0
 6-311+G(2d,p)
 ****
 1  2  14  15  16  17  18  19  20  21  22  24  25  26 0
 3-21G
 ****
 31  33  36  37  38  39  40  41  42  43  44  45  46 0
 3-21G
 ****


