%nproc=1
%NoSave
%Mem=1900MB
#P OB98/GEN NMR

erre ene a

0 1
  C     -310.211    -229.381     213.148
  O     -311.451    -228.693     213.174
  P     -312.777    -229.563     212.928
  C     -315.302    -229.184     213.432
  O     -313.959    -228.778     213.672
  C     -316.115    -229.130     214.722
  O     -315.632    -230.111     215.653
  C     -316.035    -227.796     215.447
  O     -316.860    -226.834     214.815
  C     -316.499    -228.185     216.847
  O     -317.931    -228.138     216.949
  C     -315.979    -229.641     216.977
  N     -314.859    -229.753     217.895
  C     -315.185    -229.732     219.256
  O     -316.356    -229.600     219.609
  N     -314.170    -229.816     220.179
  C     -312.937    -229.913     219.771
  N     -311.975    -230.001     220.725
  C     -312.557    -229.920     218.345
  C     -313.555    -229.828     217.467
  O     -312.548    -230.852     213.846
  O     -313.036    -229.923     211.503
  H     -318.126    -228.210     217.906
  H     -313.039    -231.618     213.500
  H     -311.517    -230.002     218.063
  H     -313.360    -229.831     216.403
  H     -316.779    -230.298     217.334
  H     -316.098    -227.511     217.610
  H     -314.999    -227.442     215.485
  H     -317.161    -229.375     214.479
  H     -312.270    -229.988     221.697
  H     -315.306    -230.215     213.057
  H     -310.994    -230.100     220.516
  H     -315.739    -228.534     212.665
  P     -316.520    -225.289     215.062
  C     -317.249    -223.117     213.905
  O     -317.137    -224.525     213.798
  O     -314.950    -225.233     214.755
  O     -316.847    -224.724     216.408
  H     -314.597    -224.353     214.968
  H     -317.530    -222.712     212.930
  H     -316.294    -222.681     214.211
  H     -318.026    -222.862     214.633
  H     -309.415    -228.688     213.325
  H     -310.078    -229.840     212.191
  H     -310.205    -230.133     213.909

 3  4  5  6  7  8  9  10  11  12  13  21  23  27  28  29  30  32 0
 6-311+G(2d,p)
 ****
 34  35 0
 6-311+G(2d,p)
 ****
 1  2  14  15  16  17  18  19  20  22  24  25  26 0
 3-21G
 ****
 31  33  36  37  38  39  40  41  42  43  44  45  46 0
 3-21G
 ****


