%nproc=1
%NoSave
%Mem=1900MB
#P OB98/GEN NMR

erre ene a

0 1
  C     -251.454     -29.489    -233.250
  O     -251.495     -28.137    -232.856
  P     -252.758     -27.219    -233.219
  C     -253.605     -27.268    -230.789
  O     -253.899     -27.578    -232.148
  C     -254.412     -26.051    -230.343
  O     -255.829     -26.248    -230.584
  C     -254.323     -25.759    -228.854
  O     -253.070     -25.358    -228.344
  C     -255.486     -24.798    -228.669
  O     -255.133     -23.472    -229.054
  C     -256.531     -25.387    -229.652
  N     -257.597     -26.100    -228.952
  C     -258.465     -25.314    -228.204
  O     -258.370     -24.092    -228.111
  N     -259.444     -25.987    -227.524
  C     -259.606     -27.342    -227.485
  O     -260.480     -27.881    -226.815
  C     -258.650     -28.120    -228.283
  C     -257.702     -27.478    -228.971
  O     -253.201     -27.283    -234.643
  O     -252.299     -25.758    -232.747
  H     -255.954     -22.943    -229.076
  H     -252.088     -25.685    -231.799
  H     -260.075     -25.438    -226.963
  H     -258.759     -29.197    -228.283
  H     -256.985     -28.032    -229.566
  H     -256.988     -24.587    -230.245
  H     -255.817     -24.754    -227.625
  H     -254.579     -26.679    -228.310
  H     -254.099     -25.193    -230.944
  H     -252.539     -27.041    -230.700
  H     -253.817     -28.139    -230.161
  P     -252.699     -25.397    -226.786
  C     -251.188     -27.497    -226.666
  O     -252.439     -26.920    -226.367
  O     -253.541     -24.566    -225.875
  O     -251.206     -24.801    -226.798
  H     -251.049     -24.322    -225.964
  H     -251.202     -28.545    -226.353
  H     -250.389     -26.982    -226.123
  H     -250.994     -27.459    -227.742
  H     -250.537     -29.930    -232.917
  H     -251.514     -29.552    -234.317
  H     -252.280     -30.012    -232.815

 3  4  5  6  7  8  9  10  11  12  13  23  28  29  30  31  32 0
 6-311+G(2d,p)
 ****
 33  34 0
 6-311+G(2d,p)
 ****
 1  2  14  15  16  17  18  19  20  21  22  24  25  26  27 0
 3-21G
 ****
 35  36  37  38  39  40  41  42  43  44  45 0
 3-21G
 ****


