%nproc=1
%NoSave
%Mem=1900MB
#P OB98/GEN NMR

erre ene a

0 1
  C      449.353    -150.778    -530.534
  O      449.238    -150.669    -531.942
  P      450.404    -149.966    -532.786
  C      448.837    -148.223    -533.842
  O      449.982    -148.438    -533.022
  C      448.523    -146.732    -533.930
  O      448.164    -146.212    -532.635
  C      449.689    -145.879    -534.412
  O      449.866    -146.004    -535.810
  C      449.255    -144.498    -533.940
  O      448.327    -143.913    -534.874
  C      448.552    -144.821    -532.613
  N      449.653    -141.428    -528.970
  C      448.893    -141.340    -530.083
  N      448.678    -142.279    -531.026
  C      449.374    -143.394    -530.746
  C      450.223    -143.616    -529.674
  C      450.336    -142.576    -528.738
  N      451.065    -142.673    -527.572
  N      450.779    -144.880    -529.754
  C      450.288    -145.398    -530.858
  N      449.381    -144.565    -531.456
  O      450.837    -150.700    -534.010
  O      451.613    -149.850    -531.741
  H      448.845    -143.605    -535.642
  H      452.377    -150.349    -532.077
  H      448.376    -140.396    -530.221
  H      450.532    -146.377    -531.254
  H      447.630    -144.239    -532.492
  H      450.092    -143.803    -533.839
  H      450.603    -146.169    -533.880
  H      447.656    -146.609    -534.598
  H      447.990    -148.759    -533.398
  H      450.960    -141.928    -526.906
  H      451.315    -143.600    -527.240
  H      449.026    -148.635    -534.840
  P      451.177    -145.397    -536.501
  C      449.755    -143.698    -537.794
  O      450.839    -143.882    -536.905
  O      451.780    -146.228    -537.585
  O      452.197    -145.218    -535.277
  H      453.117    -145.346    -535.590
  H      450.075    -143.931    -538.812
  H      449.437    -142.657    -537.748
  H      448.909    -144.341    -537.513
  H      448.488    -151.271    -530.143
  H      449.430    -149.801    -530.106
  H      450.228    -151.344    -530.290

 3  4  5  6  7  8  9  10  11  12  22  25  29  30  31  32 0
 6-311+G(2d,p)
 ****
 33  36  37 0
 6-311+G(2d,p)
 ****
 1  2  13  14  15  16  17  18  19  20  21  23  24  26 0
 3-21G
 ****
 27  28  34  35  38  39  40  41  42  43  44  45  46  47  48 0
 3-21G
 ****


