%nproc=1
%NoSave
%Mem=1900MB
#P OB98/GEN NMR

erre ene a

0 1
  C      -35.893     614.976     362.878
  O      -34.926     615.985     363.084
  H      -36.900     615.401     362.913
  H      -35.730     614.531     361.893
  H      -35.791     614.198     363.640
  P      -35.065     616.836     364.440
  C      -33.872     615.103     365.954
  O      -35.084     615.773     365.642
  C      -33.111     615.867     367.033
  O      -33.980     616.139     368.157
  C      -31.920     615.123     367.624
  O      -30.784     615.182     366.772
  C      -31.708     615.909     368.910
  O      -30.974     617.119     368.621
  C      -33.139     616.254     369.333
  N      -34.124     615.763     374.347
  C      -33.587     616.773     373.630
  N      -33.346     616.832     372.303
  C      -33.738     615.695     371.700
  C      -34.298     614.585     372.300
  C      -34.487     614.641     373.689
  N      -35.024     613.597     374.417
  N      -34.583     613.617     371.360
  C      -34.198     614.132     370.210
  N      -33.673     615.388     370.366
  O      -36.574     617.371     364.392
  O      -34.090     617.959     364.590
  H      -31.543     617.652     368.036
  H      -36.604     618.263     364.783
  H      -33.318     617.662     374.201
  H      -34.283     613.641     369.253
  H      -33.219     617.290     369.682
  H      -31.137     615.356     369.659
  H      -32.183     614.088     367.871
  H      -32.799     616.831     366.609
  H      -33.250     615.040     365.056
  H      -35.313     613.766     375.364
  H      -35.297     612.758     373.912
  H      -34.107     614.090     366.298
  P      -29.535     614.238     367.133
  C      -30.056     612.296     365.489
  O      -30.031     612.743     366.841
  O      -29.485     614.303     368.733
  O      -28.235     614.633     366.521
  H      -28.578     614.113     369.044
  H      -30.407     611.286     365.454
  H      -29.069     612.345     365.079
  H      -30.711     612.921     364.919

 6  7  8  9  10  11  12  13  14  15  25  28  32  33  34  35 0
 6-311+G(2d,p)
 ****
 36  39  40 0
 6-311+G(2d,p)
 ****
 1  2  3  4  5  16  17  18  19  20  21  22  23  24 0
 3-21G
 ****
 26  27  29  30  31  37  38  41  42  43  44  45  46  47  48 0
 3-21G
 ****


