%nproc=1
%NoSave
%Mem=1900MB
#P OB98/GEN NMR

erre ene a

0 1
  C     -733.803    -124.966     430.881
  O     -732.472    -124.493     430.958
  H     -733.904    -125.598     429.999
  H     -734.493    -124.124     430.793
  H     -734.053    -125.559     431.768
  P     -732.029    -123.737     432.300
  C     -730.926    -121.593     431.336
  O     -730.731    -122.865     431.928
  C     -730.265    -121.544     429.963
  O     -728.836    -121.786     430.131
  C     -730.788    -122.602     428.977
  O     -730.799    -122.018     427.658
  C     -729.737    -123.690     429.031
  O     -729.691    -124.510     427.884
  C     -728.461    -122.846     429.227
  N     -727.354    -123.630     429.762
  C     -726.693    -124.487     428.870
  O     -726.921    -124.565     427.674
  N     -725.723    -125.279     429.438
  C     -725.378    -125.316     430.759
  O     -724.505    -126.060     431.204
  C     -726.112    -124.395     431.634
  C     -727.055    -123.613     431.110
  O     -731.433    -124.922     433.198
  O     -733.108    -122.979     432.995
  H     -732.138    -125.326     433.747
  H     -729.026    -125.213     428.046
  H     -725.240    -125.904     428.817
  H     -725.877    -124.406     432.697
  H     -727.621    -122.937     431.734
  H     -728.174    -122.387     428.277
  H     -729.916    -124.329     429.909
  H     -731.791    -122.972     429.213
  H     -730.369    -120.529     429.548
  H     -730.481    -120.816     431.979
  H     -732.005    -121.393     431.248
  P     -732.040    -122.374     426.707
  C     -730.375    -122.365     424.687
  O     -731.595    -121.914     425.240
  O     -733.106    -121.281     427.179
  O     -732.491    -123.785     426.836
  H     -732.701    -120.429     427.418
  H     -730.254    -121.953     423.707
  H     -730.384    -123.433     424.626
  H     -729.563    -122.050     425.309

 6  7  8  9  10  11  12  13  14  15  16  27  31  32  33  34  35 0
 6-311+G(2d,p)
 ****
 36  37 0
 6-311+G(2d,p)
 ****
 1  2  3  4  5  17  18  19  20  21  22  23  24  25 0
 3-21G
 ****
 26  28  29  30  38  39  40  41  42  43  44  45 0
 3-21G
 ****


