%nproc=1
%NoSave
%Mem=1900MB
#P OB98/GEN NMR

erre ene a

0 1
  C     -319.874     135.196    -131.564
  O     -319.147     136.319    -132.017
  H     -319.208     134.335    -131.454
  H     -320.314     135.428    -130.589
  H     -320.680     134.957    -132.266
  P     -318.409     136.164    -133.435
  C     -320.011     136.773    -135.376
  O     -319.070     137.247    -134.422
  C     -321.016     137.876    -135.713
  O     -321.859     138.090    -134.548
  C     -320.369     139.220    -136.093
  O     -320.925     139.719    -137.316
  C     -320.766     140.154    -134.964
  O     -320.982     141.492    -135.401
  C     -322.042     139.510    -134.430
  N     -323.125     143.429    -131.354
  C     -323.292     143.268    -132.685
  N     -323.072     142.163    -133.429
  C     -322.668     141.141    -132.653
  C     -322.477     141.150    -131.282
  C     -322.704     142.369    -130.623
  N     -322.483     142.552    -129.276
  N     -322.049     139.910    -130.837
  C     -321.944     139.180    -131.930
  N     -322.291     139.885    -133.054
  O     -318.965     134.763    -133.984
  O     -316.921     136.173    -133.364
  H     -321.307     141.999    -134.635
  H     -318.214     134.150    -134.098
  H     -323.638     144.143    -133.227
  H     -321.579     138.159    -131.972
  H     -322.921     139.787    -135.028
  H     -319.971     140.157    -134.208
  H     -319.283     139.150    -136.192
  H     -321.667     137.520    -136.523
  H     -320.552     135.912    -134.962
  H     -322.557     143.484    -128.909
  H     -322.062     141.798    -128.749
  H     -319.478     136.455    -136.277
  P     -320.039     139.493    -138.643
  C     -320.775     137.063    -139.201
  O     -320.808     138.435    -139.579
  O     -318.769     138.686    -138.099
  O     -319.634     140.762    -139.315
  H     -317.948     139.162    -138.325
  H     -321.325     136.484    -139.913
  H     -321.215     136.949    -138.232
  H     -319.760     136.725    -139.174

 6  7  8  9  10  11  12  13  14  15  25  28  32  33  34  35 0
 6-311+G(2d,p)
 ****
 36  39  40 0
 6-311+G(2d,p)
 ****
 1  2  3  4  5  16  17  18  19  20  21  22  23  24 0
 3-21G
 ****
 26  27  29  30  31  37  38  41  42  43  44  45  46  47  48 0
 3-21G
 ****


