%nproc=1
%NoSave
%Mem=1900MB
#P OB98/GEN NMR

erre ene a

0 1
  C     -134.632     327.355      87.757
  O     -135.016     327.726      89.066
  H     -135.536     327.167      87.171
  H     -134.039     326.438      87.783
  H     -134.064     328.156      87.278
  P     -133.879     328.155      90.113
  C     -131.650     329.272      89.484
  O     -133.066     329.365      89.439
  C     -131.009     330.439      88.738
  O     -131.472     330.424      87.363
  C     -131.347     331.810      89.333
  O     -130.192     332.644      89.233
  C     -132.434     332.334      88.415
  O     -132.484     333.761      88.394
  C     -132.038     331.718      87.074
  N     -133.565     332.188      82.284
  C     -132.305     332.313      82.832
  N     -131.301     332.634      81.986
  N     -132.049     332.141      84.102
  C     -133.143     331.807      84.829
  C     -134.442     331.656      84.403
  C     -134.715     331.864      82.997
  O     -135.811     331.782      82.455
  N     -135.275     331.342      85.449
  C     -134.482     331.304      86.504
  N     -133.180     331.592      86.182
  O     -133.021     327.041      90.618
  O     -134.688     328.867      91.294
  H     -132.474     334.063      89.328
  H     -134.807     328.258      92.047
  H     -133.707     332.342      81.298
  H     -134.794     331.086      87.516
  H     -131.285     332.316      86.546
  H     -133.411     331.962      88.747
  H     -131.419     332.766      80.995
  H     -131.678     331.753      90.375
  H     -130.364     332.706      82.364
  H     -129.924     330.280      88.709
  H     -131.354     328.327      89.015
  H     -131.319     329.266      90.529
  P     -129.242     332.800      90.517
  C     -128.377     330.471      91.197
  O     -128.119     331.657      90.452
  O     -129.943     332.932      91.826
  O     -128.404     334.127      90.176
  H     -128.171     334.575      91.012
  H     -127.562     329.789      91.075
  H     -129.278     330.016      90.843
  H     -128.485     330.717      92.233

 6  7  8  9  10  11  12  13  14  15  26  29  33  34 0
 6-311+G(2d,p)
 ****
 36  38  39  40  41 0
 6-311+G(2d,p)
 ****
 1  2  3  4  5  16  17  18  19  20  21  22  23  24  25 0
 3-21G
 ****
 27  28  30  31  32  35  37  42  43  44  45  46  47 0
 3-21G
 ****
 48  49 0
 3-21G
 ****


