%nproc=1
%NoSave
%Mem=1900MB
#P OB98/GEN NMR

erre ene a

0 1
  C      -81.696    -890.790    -331.012
  O      -81.194    -891.220    -329.730
  P      -80.809    -892.750    -329.501
  C      -78.312    -892.380    -330.187
  O      -79.520    -893.090    -330.398
  C      -77.128    -893.340    -330.034
  O      -77.373    -894.260    -328.953
  C      -76.888    -894.220    -331.262
  O      -76.227    -893.500    -332.291
  C      -76.039    -895.330    -330.663
  O      -74.647    -894.930    -330.563
  C      -76.655    -895.480    -329.256
  N      -77.504    -896.670    -329.150
  C      -76.856    -897.900    -329.051
  O      -75.629    -898.010    -329.087
  N      -77.676    -898.990    -328.901
  C      -79.031    -898.990    -328.937
  O      -79.704    -900.000    -328.829
  C      -79.668    -897.670    -329.140
  C      -78.897    -896.600    -329.237
  O      -81.973    -893.510    -330.309
  O      -80.753    -893.210    -328.079
  H      -74.339    -894.730    -331.463
  H      -82.108    -894.400    -329.911
  H      -77.207    -899.880    -328.797
  H      -80.745    -897.620    -329.203
  H      -79.336    -895.620    -329.396
  H      -75.866    -895.560    -328.491
  H      -76.071    -896.240    -331.270
  H      -77.826    -894.630    -331.625
  H      -76.244    -892.760    -329.775
  H      -78.396    -891.760    -329.278
  H      -78.136    -891.690    -331.033
  P      -77.128    -892.990    -333.511
  C      -76.221    -890.620    -332.859
  O      -77.295    -891.410    -333.309
  O      -78.550    -893.630    -333.129
  O      -76.586    -893.430    -334.844
  H      -78.684    -893.660    -332.154
  H      -75.270    -890.990    -333.229
  H      -76.206    -890.610    -331.760
  H      -76.373    -889.600    -333.216
  H      -81.899    -889.740    -330.981
  H      -82.597    -891.321    -331.239
  H      -80.964    -890.990    -331.767

 3  4  5  6  7  8  9  10  11  12  13  23  28  29  30  31  32 0
 6-311+G(2d,p)
 ****
 33  34 0
 6-311+G(2d,p)
 ****
 1  2  14  15  16  17  18  19  20  21  22  24  25  26 0
 3-21G
 ****
 27  35  36  37  38  39  40  41  42  43  44  45 0
 3-21G
 ****


