%nproc=1
%NoSave
%Mem=1900MB
#P OB98/GEN NMR

erre ene a

0 1
  C      830.292     768.352     -28.080
  O      830.337     769.750     -27.755
  P      829.605     770.863     -28.640
  C      831.477     772.635     -28.513
  O      830.122     772.306     -28.189
  C      831.970     773.858     -27.732
  O      831.070     774.972     -27.885
  C      832.092     773.648     -26.222
  O      833.281     772.945     -25.920
  C      832.060     775.079     -25.717
  O      833.352     775.713     -25.849
  C      831.054     775.738     -26.688
  N      827.660     778.698     -24.201
  C      828.927     778.921     -24.635
  N      829.769     778.081     -25.282
  C      829.180     776.902     -25.496
  C      827.900     776.505     -25.116
  C      827.123     777.463     -24.434
  N      825.839     777.217     -23.990
  N      827.642     775.194     -25.492
  C      828.742     774.816     -26.120
  N      829.705     775.798     -26.134
  O      828.112     770.731     -28.687
  O      830.237     770.691     -30.119
  H      833.980     775.219     -25.277
  H      829.596     770.976     -30.777
  H      829.322     779.917     -24.424
  H      828.894     773.840     -26.549
  H      831.336     776.766     -26.940
  H      831.772     775.164     -24.657
  H      831.230     773.111     -25.847
  H      832.940     774.166     -28.155
  H      831.532     772.825     -29.588
  H      825.368     777.940     -23.473
  H      825.451     776.281     -24.107
  H      832.114     771.767     -28.274
  P      833.264     771.751     -24.852
  C      835.266     772.079     -23.254
  O      834.784     771.446     -24.451
  O      832.460     770.561     -25.232
  O      832.684     772.442     -23.524
  H      832.193     771.772     -22.998
  H      835.528     773.120     -23.487
  H      836.167     771.550     -22.928
  H      834.513     772.045     -22.475
  H      830.849     767.799     -27.353
  H      830.718     768.197     -29.049
  H      829.275     768.018     -28.080

 3  4  5  6  7  8  9  10  11  12  22  25  29  30  31  32 0
 6-311+G(2d,p)
 ****
 33  36  37 0
 6-311+G(2d,p)
 ****
 1  2  13  14  15  16  17  18  19  20  21  23  24  26 0
 3-21G
 ****
 27  28  34  35  38  39  40  41  42  43  44  45  46  47  48 0
 3-21G
 ****


