%nproc=1
%NoSave
%Mem=1900MB
#P OB98/GEN NMR

erre ene a

0 1
  C       -9.639      58.663      19.315
  O      -10.177      59.655      18.459
  P      -11.151      59.177      17.273
  C      -13.420      57.897      17.220
  O      -12.232      58.193      17.936
  C      -13.911      56.486      17.555
  O      -12.909      55.533      17.114
  C      -14.157      56.229      19.045
  O      -15.237      55.291      19.134
  C      -12.869      55.565      19.496
  O      -13.029      54.810      20.692
  C      -12.529      54.740      18.260
  N       -9.107      51.017      18.285
  C      -10.476      50.963      18.478
  N      -11.008      49.733      18.641
  N      -11.249      52.016      18.506
  C      -10.575      53.174      18.312
  C       -9.223      53.361      18.149
  C       -8.385      52.186      18.082
  O       -7.183      52.181      17.827
  N       -8.904      54.690      18.071
  C      -10.070      55.302      18.104
  N      -11.116      54.423      18.203
  O      -10.220      58.198      16.421
  O      -11.748      60.271      16.445
  H      -13.343      55.419      21.391
  H       -9.792      58.674      15.682
  H       -8.566      50.170      18.254
  H      -10.219      56.368      18.056
  H      -13.084      53.794      18.221
  H      -12.106      56.331      19.681
  H      -10.477      48.877      18.600
  H      -14.390      57.133      19.614
  H      -12.013      49.662      18.752
  H      -14.822      56.293      16.977
  H      -13.208      57.947      16.147
  H      -14.187      58.642      17.456
  P      -16.180      55.354      20.429
  C      -17.500      57.208      21.664
  O      -16.486      56.894      20.731
  O      -15.183      54.938      21.614
  O      -17.363      54.443      20.388
  H      -15.679      54.464      22.307
  H      -17.322      58.214      22.052
  H      -17.509      56.504      22.502
  H      -18.472      57.189      21.165
  H       -9.015      59.127      20.050
  H       -9.059      57.972      18.740
  H      -10.436      58.141      19.802

 3  4  5  6  7  8  9  10  11  12  23  26  30  31 0
 6-311+G(2d,p)
 ****
 33  35  36  37  38 0
 6-311+G(2d,p)
 ****
 1  2  13  14  15  16  17  18  19  20  21  22  24  25 0
 3-21G
 ****
 27  28  29  32  34  39  40  41  42  43  44  45  46  47  48  49 0
 3-21G
 ****


