%nproc=1
%NoSave
%Mem=1900MB
#P OB98/GEN NMR

erre ene a

0 1
  C      -40.175     -20.031     -47.892
  O      -40.357     -18.940     -48.766
  P      -39.992     -17.434     -48.393
  C      -37.772     -16.185     -47.802
  O      -38.507     -17.403     -47.789
  C      -36.961     -16.018     -46.509
  O      -37.885     -15.814     -45.410
  C      -36.148     -17.281     -46.183
  O      -34.833     -17.020     -45.710
  C      -37.080     -18.056     -45.261
  O      -36.417     -19.027     -44.467
  C      -37.770     -16.928     -44.499
  N      -41.119     -16.233     -40.742
  C      -39.972     -15.520     -41.027
  N      -39.578     -14.631     -40.088
  N      -39.265     -15.694     -42.112
  C      -39.719     -16.695     -42.901
  C      -40.843     -17.468     -42.723
  C      -41.634     -17.244     -41.537
  O      -42.595     -17.930     -41.188
  N      -40.956     -18.433     -43.690
  C      -39.881     -18.268     -44.436
  N      -39.083     -17.246     -43.975
  O      -41.051     -16.640     -47.700
  O      -39.772     -16.782     -49.856
  H      -37.100     -19.566     -44.027
  H      -40.077     -15.854     -49.805
  H      -41.580     -16.109     -39.847
  H      -39.617     -18.874     -45.294
  H      -37.175     -16.602     -43.643
  H      -37.795     -18.596     -45.892
  H      -40.019     -14.581     -39.181
  H      -35.978     -17.871     -47.090
  H      -38.625     -14.284     -40.154
  H      -36.335     -15.123     -46.590
  H      -38.511     -15.381     -47.892
  H      -37.119     -16.141     -48.676
  P      -33.535     -17.946     -45.796
  C      -32.067     -18.932     -47.654
  O      -33.338     -18.408     -47.316
  O      -33.945     -19.307     -45.062
  O      -32.313     -17.367     -45.163
  H      -33.191     -19.634     -44.537
  H      -31.972     -18.947     -48.743
  H      -31.978     -19.953     -47.276
  H      -31.267     -18.313     -47.236
  H      -40.494     -20.931     -48.374
  H      -40.753     -19.877     -47.005
  H      -39.140     -20.112     -47.634

 3  4  5  6  7  8  9  10  11  12  23  26  30  31 0
 6-311+G(2d,p)
 ****
 33  35  36  37  38 0
 6-311+G(2d,p)
 ****
 1  2  13  14  15  16  17  18  19  20  21  22  24  25 0
 3-21G
 ****
 27  28  29  32  34  39  40  41  42  43  44  45  46  47  48  49 0
 3-21G
 ****


