%nproc=1
%NoSave
%Mem=1900MB
#P OB98/GEN NMR

erre ene a

0 1
  C       33.206     -24.475      78.240
  O       32.834     -24.703      79.583
  H       34.295     -24.391      78.190
  H       32.767     -23.545      77.873
  H       32.892     -25.311      77.610
  P       31.276     -24.799      79.945
  C       30.698     -27.302      79.702
  O       30.677     -26.017      79.089
  C       29.595     -28.187      79.109
  O       28.334     -27.760      79.679
  C       29.500     -28.064      77.581
  O       29.551     -29.322      76.914
  C       28.258     -27.206      77.376
  O       27.608     -27.395      76.137
  C       27.403     -27.535      78.604
  N       26.449     -26.485      78.959
  C       25.485     -26.154      78.013
  O       25.357     -26.688      76.913
  N       24.620     -25.153      78.377
  C       24.631     -24.469      79.554
  O       23.826     -23.586      79.825
  C       25.687     -24.849      80.504
  C       26.535     -25.824      80.168
  O       30.509     -23.525      79.839
  O       31.261     -25.370      81.441
  H       26.741     -26.943      76.183
  H       31.081     -24.643      82.066
  H       23.910     -24.912      77.703
  H       25.732     -24.320      81.444
  H       27.326     -26.132      80.845
  H       26.840     -28.454      78.443
  H       28.559     -26.151      77.421
  H       30.369     -27.530      77.178
  H       29.767     -29.222      79.422
  H       30.539     -27.167      80.776
  H       31.675     -27.770      79.541
  P       30.887     -30.149      76.634
  C       30.391     -32.453      77.783
  O       31.074     -31.209      77.818
  O       32.080     -29.338      76.257
  O       30.498     -31.064      75.363
  H       31.316     -31.174      74.839
  H       30.641     -33.022      78.654
  H       30.682     -32.995      76.908
  H       29.335     -32.280      77.761

 6  7  8  9  10  11  12  13  14  15  16  26  31  32  33  34  35 0
 6-311+G(2d,p)
 ****
 36  37 0
 6-311+G(2d,p)
 ****
 1  2  3  4  5  17  18  19  20  21  22  23  24  25 0
 3-21G
 ****
 27  28  29  30  38  39  40  41  42  43  44  45 0
 3-21G
 ****


