%nproc=1
%NoSave
%Mem=1900MB
#P OB98/GEN NMR

erre ene a

0 1
  C      146.009     218.035     -60.971
  O      145.675     219.404     -60.906
  H      145.093     217.459     -61.116
  H      146.477     217.722     -60.034
  H      146.684     217.832     -61.806
  P      146.844     220.490     -61.020
  C      148.041     221.710     -62.956
  O      146.903     220.961     -62.553
  C      147.759     222.468     -64.259
  O      147.146     221.559     -65.208
  C      146.768     223.616     -64.038
  O      146.956     224.675     -64.971
  C      145.425     222.956     -64.303
  O      144.404     223.886     -64.663
  C      145.785     221.974     -65.417
  N      141.004     220.237     -65.758
  C      141.452     221.526     -65.547
  N      140.498     222.480     -65.413
  N      142.715     221.850     -65.454
  C      143.552     220.787     -65.535
  C      143.228     219.462     -65.719
  C      141.828     219.123     -65.857
  O      141.376     217.994     -66.020
  N      144.349     218.671     -65.741
  C      145.348     219.513     -65.566
  N      144.918     220.813     -65.460
  O      148.183     219.622     -60.876
  O      146.798     221.600     -60.014
  H      144.182     224.400     -63.866
  H      148.923     220.184     -60.585
  H      140.023     220.048     -65.852
  H      146.395     219.237     -65.525
  H      145.729     222.463     -66.397
  H      145.099     222.460     -63.385
  H      139.527     222.242     -65.283
  H      146.813     224.021     -63.029
  H      140.787     223.346     -64.955
  H      148.699     222.808     -64.706
  H      148.857     220.998     -63.094
  H      148.342     222.399     -62.166
  P      147.410     226.110     -64.422
  C      148.912     227.898     -65.667
  O      148.732     226.587     -65.178
  O      147.908     225.807     -62.935
  O      146.334     227.151     -64.451
  H      147.334     226.254     -62.285
  H      149.872     227.976     -66.133
  H      148.852     228.593     -64.855
  H      148.149     228.119     -66.383

 6  7  8  9  10  11  12  13  14  15  26  29  33  34 0
 6-311+G(2d,p)
 ****
 36  38  39  40  41 0
 6-311+G(2d,p)
 ****
 1  2  3  4  5  16  17  18  19  20  21  22  23  24  25 0
 3-21G
 ****
 27  28  30  31  32  35  37  42  43  44  45  46  47 0
 3-21G
 ****
 48  49 0
 3-21G
 ****


