%nproc=1
%NoSave
%Mem=1900MB
#P OB98/GEN NMR

erre ene a

0 1
  C       14.533      47.402     -26.936
  O       13.204      46.937     -26.835
  H       15.210      46.570     -26.723
  H       14.714      48.194     -26.205
  H       14.740      47.772     -27.943
  P       12.006      47.925     -27.231
  C       11.996      48.887     -24.840
  O       12.087      49.175     -26.230
  C       12.441      50.099     -24.028
  O       13.877      50.243     -24.089
  C       11.870      51.421     -24.528
  O       10.513      51.557     -24.156
  C       12.825      52.404     -23.869
  O       12.486      52.606     -22.489
  C       14.173      51.655     -23.992
  N       14.972      52.106     -25.133
  C       15.887      53.121     -24.878
  O       16.036      53.632     -23.770
  N       16.600      53.566     -25.959
  C       16.421      53.165     -27.251
  O       16.921      53.740     -28.212
  C       15.497      52.039     -27.448
  C       14.812      51.578     -26.399
  O       10.659      47.296     -27.350
  O       12.485      48.555     -28.625
  H       12.022      48.104     -29.356
  H       13.187      53.173     -22.113
  H       17.233      54.335     -25.795
  H       15.375      51.648     -28.451
  H       14.103      50.769     -26.526
  H       14.772      51.792     -23.083
  H       12.811      53.383     -24.350
  H       11.984      51.492     -25.616
  H       12.163      49.928     -22.980
  H       12.652      48.038     -24.617
  H       10.964      48.613     -24.598
  P        9.490      52.400     -25.050
  C       10.391      54.513     -23.915
  O       10.037      53.903     -25.148
  O        8.057      52.289     -24.647
  O        9.710      51.840     -26.535
  H        8.847      51.569     -26.905
  H       10.741      55.508     -24.097
  H       11.165      53.943     -23.444
  H        9.534      54.548     -23.275

 6  7  8  9  10  11  12  13  14  15  16  27  31  32  33  34  35 0
 6-311+G(2d,p)
 ****
 36  37 0
 6-311+G(2d,p)
 ****
 1  2  3  4  5  17  18  19  20  21  22  23  24  25 0
 3-21G
 ****
 26  28  29  30  38  39  40  41  42  43  44  45 0
 3-21G
 ****


