%nproc=1
%NoSave
%Mem=1900MB
#P OB98/GEN NMR

erre ene a

0 1
  C       51.928     -87.017     263.958
  O       52.032     -87.682     265.219
  P       51.263     -87.080     266.489
  C       53.447     -86.459     267.725
  O       52.208     -85.992     267.203
  C       53.646     -85.972     269.178
  O       53.722     -84.523     269.206
  C       52.505     -86.406     270.114
  O       52.973     -87.046     271.309
  C       51.702     -85.130     270.311
  O       50.943     -85.133     271.513
  C       52.771     -84.037     270.172
  N       52.185     -82.745     269.782
  C       51.422     -82.091     270.742
  O       51.158     -82.583     271.843
  N       50.904     -80.874     270.367
  C       51.018     -80.302     269.141
  O       50.500     -79.230     268.836
  C       51.789     -81.070     268.142
  C       52.331     -82.238     268.509
  O       50.652     -88.084     267.414
  O       50.131     -86.159     265.818
  H       50.417     -85.962     271.546
  H       49.314     -86.252     266.355
  H       50.357     -80.383     271.056
  H       51.881     -80.655     267.146
  H       52.894     -82.828     267.795
  H       53.295     -83.878     271.125
  H       50.991     -85.032     269.480
  H       51.863     -87.164     269.646
  H       54.604     -86.381     269.522
  H       54.266     -86.079     267.116
  H       53.485     -87.548     267.660
  P       52.881     -88.612     271.594
  C       51.357     -88.249     273.667
  O       51.537     -88.902     272.421
  O       54.108     -89.249     272.159
  O       52.558     -89.225     270.144
  H       53.066     -90.053     270.029
  H       50.619     -88.814     274.254
  H       50.987     -87.235     273.507
  H       52.297     -88.209     274.238
  H       52.499     -87.549     263.226
  H       52.305     -86.020     264.048
  H       50.902     -86.984     263.656

 3  4  5  6  7  8  9  10  11  12  13  23  28  29  30  31  32 0
 6-311+G(2d,p)
 ****
 33  34 0
 6-311+G(2d,p)
 ****
 1  2  14  15  16  17  18  19  20  21  22  24  25  26  27 0
 3-21G
 ****
 35  36  37  38  39  40  41  42  43  44  45 0
 3-21G
 ****


