%nproc=1
%NoSave
%Mem=1900MB
#P OB98/GEN NMR

erre ene a

0 1
  C      -10.362      -9.872      -5.292
  O       -9.377      -9.671      -6.284
  H      -11.198      -9.195      -5.483
  H       -9.951      -9.652      -4.303
  H      -10.728     -10.902      -5.322
  P       -8.075     -10.605      -6.207
  C       -7.674     -13.124      -6.711
  O       -8.600     -12.117      -6.323
  C       -7.956     -14.409      -5.939
  O       -7.588     -14.229      -4.553
  C       -9.424     -14.821      -5.924
  O       -9.808     -15.460      -7.128
  C       -9.460     -15.740      -4.710
  O       -9.033     -17.068      -5.042
  C       -8.445     -15.085      -3.765
  N       -8.099     -13.636       1.108
  C       -7.269     -14.349       0.317
  N       -7.427     -14.677      -0.983
  C       -8.580     -14.178      -1.458
  C       -9.527     -13.440      -0.771
  C       -9.251     -13.164       0.578
  N      -10.112     -12.468       1.393
  N      -10.600     -13.147      -1.589
  C      -10.302     -13.690      -2.751
  N       -9.089     -14.318      -2.719
  O       -7.631     -10.473      -4.674
  O       -6.973     -10.239      -7.143
  H       -9.285     -17.638      -4.289
  H       -6.951      -9.779      -4.589
  H       -6.360     -14.707       0.792
  H      -10.929     -13.663      -3.634
  H       -7.800     -15.823      -3.275
  H      -10.468     -15.817      -4.300
  H      -10.060     -13.949      -5.727
  H       -7.332     -15.210      -6.355
  H       -6.656     -12.785      -6.487
  H       -7.765     -13.293      -7.788
  H       -9.859     -12.328       2.358
  H      -11.021     -12.205       1.036
  P      -11.341     -15.377      -7.582
  C      -12.962     -13.416      -8.117
  O      -11.821     -13.857      -7.398
  O      -12.110     -16.162      -6.419
  O      -11.624     -15.955      -8.928
  H      -12.323     -17.070      -6.704
  H      -13.152     -12.388      -7.889
  H      -13.810     -14.006      -7.837
  H      -12.785     -13.521      -9.167

 6  7  8  9  10  11  12  13  14  15  25  28  32  33  34  35 0
 6-311+G(2d,p)
 ****
 36  37  40 0
 6-311+G(2d,p)
 ****
 1  2  3  4  5  16  17  18  19  20  21  22  23  24 0
 3-21G
 ****
 26  27  29  30  31  38  39 41  42  43  44  45  46  47  48 0
 3-21G
 ****


