%nproc=1
%NoSave
%Mem=1900MB
#P OB98/GEN NMR

erre ene a

0 1
  C      -98.084    -260.020    -131.594
  O      -98.355    -260.945    -132.634
  P      -97.284    -261.033    -133.829
  C      -97.900    -263.526    -134.320
  O      -97.798    -262.194    -134.809
  C      -98.480    -264.428    -135.411
  O      -99.919    -264.381    -135.391
  C      -98.057    -264.049    -136.824
  O      -96.772    -264.564    -137.117
  C      -99.175    -264.677    -137.653
  O      -98.944    -266.083    -137.846
  C     -100.406    -264.440    -136.763
  N     -103.797    -262.388    -139.901
  C     -103.137    -263.601    -139.974
  N     -103.469    -264.400    -141.012
  N     -102.243    -263.997    -139.109
  C     -102.004    -263.091    -138.130
  C     -102.583    -261.849    -137.961
  C     -103.605    -261.448    -138.902
  O     -104.286    -260.427    -138.819
  N     -102.065    -261.204    -136.865
  C     -101.210    -262.066    -136.361
  N     -101.148    -263.229    -137.076
  O      -95.999    -261.657    -133.120
  O      -96.993    -259.735    -134.517
  H      -98.037    -266.221    -138.177
  H      -95.355    -260.960    -132.887
  H     -104.488    -262.142    -140.590
  H     -100.621    -261.902    -135.464
  H     -101.118    -265.273    -136.813
  H      -99.254    -264.232    -138.647
  H     -104.131    -264.153    -141.732
  H      -98.074    -262.959    -136.950
  H     -102.996    -265.296    -141.083
  H      -98.178    -265.464    -135.186
  H      -98.561    -263.543    -133.452
  H      -96.905    -263.872    -134.018
  P      -95.730    -263.584    -137.846
  C      -93.609    -264.099    -136.429
  O      -94.275    -264.230    -137.672
  O      -95.696    -262.304    -136.878
  O      -96.103    -263.205    -139.237
  H      -95.594    -261.494    -137.413
  H      -92.955    -264.963    -136.285
  H      -94.316    -264.039    -135.596
  H      -93.000    -263.189    -136.448
  H      -98.868    -260.060    -130.867
  H      -98.026    -259.032    -132.001
  H      -97.153    -260.269    -131.128

 3  4  5  6  7  8  9  10  11  12  23  26  30  31 0
 6-311+G(2d,p)
 ****
 33  35  36  37  38 0
 6-311+G(2d,p)
 ****
 1  2  13  14  15  16  17  18  19  20  21  22  24  25 0
 3-21G
 ****
 27  28  29  32  34  39  40  41  42  43  44  45  46  47  48  49 0
 3-21G
 ****


