%nproc=1
%NoSave
%Mem=1900MB
#P OB98/GEN NMR

erre ene a

0 1
  C     -557.835    -437.199     138.517
  O     -559.213    -437.578     138.429
  P     -560.257    -436.396     138.129
  C     -562.239    -437.196     139.602
  O     -561.739    -436.991     138.290
  C     -563.646    -437.790     139.562
  O     -564.586    -436.936     138.865
  C     -563.720    -439.138     138.862
  O     -563.281    -440.160     139.735
  C     -565.201    -439.236     138.516
  O     -565.960    -439.733     139.635
  C     -565.567    -437.779     138.212
  N     -567.642    -434.648     134.798
  C     -567.906    -434.787     136.151
  N     -568.834    -433.962     136.665
  N     -567.309    -435.658     136.918
  C     -566.396    -436.426     136.272
  C     -566.030    -436.370     134.943
  C     -566.709    -435.400     134.097
  O     -566.499    -435.222     132.902
  N     -565.032    -437.256     134.659
  C     -564.884    -437.943     135.782
  N     -565.645    -437.430     136.808
  O     -560.103    -436.164     136.554
  O     -559.975    -435.148     138.897
  H     -565.648    -440.629     139.853
  H     -559.666    -435.303     136.386
  H     -568.150    -433.975     134.252
  H     -564.227    -438.787     135.908
  H     -566.545    -437.515     138.646
  H     -565.374    -439.925     137.686
  H     -569.339    -433.258     136.133
  H     -563.114    -439.118     137.943
  H     -569.032    -434.036     137.660
  H     -564.002    -437.886     140.599
  H     -562.257    -436.251     140.153
  H     -561.552    -437.862     140.145
  P     -562.627    -441.476     139.097
  C     -563.487    -443.412     140.597
  O     -562.424    -442.543     140.279
  O     -561.145    -441.016     138.728
  O     -563.348    -441.994     137.887
  H     -560.915    -441.334     137.840
  H     -563.083    -444.343     140.990
  H     -564.117    -443.638     139.727
  H     -564.120    -442.955     141.377
  H     -557.239    -438.065     138.719
  H     -557.710    -436.488     139.307
  H     -557.526    -436.761     137.591

 3  4  5  6  7  8  9  10  11  12  23  26  30  31 0
 6-311+G(2d,p)
 ****
 33  35  36  37  38 0
 6-311+G(2d,p)
 ****
 1  2  13  14  15  16  17  18  19  20  21  22  24  25 0
 3-21G
 ****
 27  28  29  32  34  39  40  41  42  43  44  45  46  47  48  49 0
 3-21G
 ****


