%nproc=1
%NoSave
%Mem=1900MB
#P OB98/GEN NMR

erre ene a

0 1
  C     -488.759    -507.459    -295.957
  O     -489.363    -506.206    -295.728
  H     -487.724    -507.421    -295.608
  H     -488.760    -507.704    -297.024
  H     -489.283    -508.242    -295.398
  P     -490.859    -505.970    -296.260
  C     -490.472    -503.438    -296.619
  O     -491.222    -504.440    -295.947
  C     -490.502    -502.115    -295.837
  O     -491.873    -501.622    -295.797
  C     -490.023    -502.247    -294.379
  O     -489.441    -500.987    -294.009
  C     -491.336    -502.462    -293.651
  O     -491.194    -502.286    -292.265
  C     -492.240    -501.480    -294.405
  N     -493.652    -501.739    -294.184
  C     -494.130    -501.491    -292.889
  O     -493.366    -501.089    -292.012
  N     -495.452    -501.729    -292.617
  C     -496.216    -502.234    -293.530
  N     -497.513    -502.462    -293.193
  C     -495.741    -502.566    -294.895
  C     -494.463    -502.290    -295.147
  O     -491.877    -506.960    -295.801
  O     -490.705    -505.983    -297.855
  H     -490.468    -502.849    -291.912
  H     -491.043    -506.830    -298.210
  H     -496.416    -503.007    -295.613
  H     -494.021    -502.495    -296.116
  H     -492.020    -500.448    -294.111
  H     -491.691    -503.488    -293.796
  H     -489.303    -503.054    -294.236
  H     -489.912    -501.370    -296.385
  H     -497.796    -502.229    -292.248
  H     -490.927    -503.298    -297.608
  H     -498.196    -502.878    -293.817
  H     -489.434    -503.761    -296.749
  P     -487.888    -500.817    -293.653
  C     -488.580    -498.630    -292.465
  O     -487.599    -499.289    -293.261
  O     -486.962    -501.369    -294.690
  O     -487.695    -501.596    -292.260
  H     -486.790    -501.960    -292.224
  H     -488.269    -497.624    -292.276
  H     -488.693    -499.149    -291.536
  H     -489.515    -498.622    -292.985

 6  7  8  9  10  11  12  13  14  15  16  26  30  31  32  33  35 0
 6-311+G(2d,p)
 ****
 37  38 0
 6-311+G(2d,p)
 ****
 1  2  3  4  5  17  18  19  20  21  22  23  24  25 0
 3-21G
 ****
 27  28  29  34  36  39  40  41  42  43  44  45  46 0
 3-21G
 ****


