%nproc=1
%NoSave
%Mem=1900MB
#P OB98/GEN NMR

erre ene a

0 1
  C      119.754      98.471    -282.279
  O      119.535      97.640    -281.133
  P      118.621      96.330    -281.121
  C      119.061      93.985    -280.026
  O      119.102      95.401    -279.909
  C      119.741      93.254    -278.849
  O      121.172      93.500    -278.893
  C      119.241      93.812    -277.513
  O      118.030      93.333    -276.955
  C      120.442      93.703    -276.577
  O      120.436      92.501    -275.814
  C      121.636      93.722    -277.542
  N      124.903      96.604    -274.847
  C      124.296      95.415    -274.500
  N      124.552      94.949    -273.253
  N      123.499      94.745    -275.292
  C      123.264      95.362    -276.470
  C      123.786      96.558    -276.923
  C      124.712      97.259    -276.058
  O      125.283      98.313    -276.325
  N      123.298      96.878    -278.167
  C      122.465      95.903    -278.453
  N      122.409      94.950    -277.458
  O      118.423      95.670    -282.442
  O      117.189      96.884    -280.624
  H      121.162      92.553    -275.160
  H      116.509      96.336    -281.070
  H      125.526      97.063    -274.209
  H      121.880      95.826    -279.364
  H      122.334      92.899    -277.317
  H      120.441      94.530    -275.863
  H      125.055      95.470    -272.557
  H      119.079      94.890    -277.652
  H      123.946      94.195    -272.917
  H      119.624      92.170    -278.941
  H      119.556      93.730    -280.969
  H      118.024      93.645    -280.121
  P      116.712      94.200    -276.676
  C      114.282      93.404    -276.468
  O      115.615      93.235    -276.014
  O      116.109      94.471    -278.136
  O      116.941      95.488    -275.946
  H      115.455      95.202    -278.104
  H      113.601      92.929    -275.755
  H      114.165      92.911    -277.443
  H      114.025      94.465    -276.556
  H      120.404      99.279    -282.015
  H      118.818      98.863    -282.620
  H      120.203      97.892    -283.059

 3  4  5  6  7  8  9  10  11  12  23  26  30  31 0
 6-311+G(2d,p)
 ****
 33  35  36  37  38 0
 6-311+G(2d,p)
 ****
 1  2  13  14  15  16  17  18  19  20  21  22  24  25 0
 3-21G
 ****
 27  28  29  32  34  39  40  41  42  43  44  45  46  47  48  49 0
 3-21G
 ****


