%nproc=1
%NoSave
%Mem=1900MB
#P OB98/GEN NMR

erre ene a

0 1
  C     -724.506    -986.009    2639.099
  O     -723.663    -987.010    2638.481
  P     -722.552    -987.717    2639.380
  C     -722.698    -990.289    2638.833
  O     -723.040    -989.212    2639.719
  C     -723.949    -991.124    2638.494
  O     -724.915    -990.330    2637.794
  C     -723.624    -992.294    2637.562
  O     -723.145    -993.415    2638.285
  C     -725.003    -992.600    2637.005
  O     -725.769    -993.375    2637.969
  C     -725.599    -991.205    2636.833
  N     -728.109    -989.866    2632.636
  C     -728.565    -990.363    2633.858
  N     -729.917    -990.503    2633.955
  N     -727.780    -990.657    2634.854
  C     -726.489    -990.437    2634.613
  C     -725.893    -989.950    2633.469
  C     -726.759    -989.659    2632.340
  O     -726.404    -989.221    2631.249
  N     -724.521    -989.871    2633.608
  C     -724.315    -990.280    2634.834
  N     -725.457    -990.652    2635.489
  O     -722.701    -986.985    2640.788
  O     -721.171    -987.620    2638.818
  H     -725.176    -994.119    2638.264
  H     -721.823    -986.967    2641.266
  H     -728.736    -989.656    2631.893
  H     -723.305    -990.334    2635.301
  H     -726.680    -991.154    2637.083
  H     -724.967    -993.195    2636.089
  H     -730.568    -990.258    2633.227
  H     -722.934    -991.986    2636.755
  H     -730.275    -990.830    2634.838
  H     -724.382    -991.500    2639.427
  H     -721.929    -990.903    2639.321
  H     -722.216    -989.837    2637.947
  P     -721.548    -993.646    2638.353
  C     -721.564    -995.047    2640.561
  O     -721.172    -993.829    2639.886
  O     -720.970    -992.209    2638.014
  O     -721.043    -994.684    2637.426
  H     -720.113    -992.270    2637.521
  H     -721.120    -995.057    2641.539
  H     -721.215    -995.910    2639.986
  H     -722.672    -995.101    2640.659
  H     -725.197    -985.628    2638.376
  H     -723.898    -985.209    2639.467
  H     -725.046    -986.450    2639.911

 3  4  5  6  7  8  9  10  11  12  23  26  30  31 0
 6-311+G(2d,p)
 ****
 33  35  36  37  38 0
 6-311+G(2d,p)
 ****
 1  2  13  14  15  16  17  18  19  20  21  22  24  25 0
 3-21G
 ****
 27  28  29  32  34  39  40  41  42  43  44  45  46  47  48  49 0
 3-21G
 ****


