%nproc=1
%NoSave
%Mem=1900MB
#P OB98/GEN NMR

erre ene a

0 1
  C     -525.365      70.282    -364.406
  O     -523.956      70.321    -364.260
  H     -525.704      69.258    -364.236
  H     -525.639      70.583    -365.423
  H     -525.844      70.945    -363.676
  P     -523.269      71.770    -364.301
  C     -521.359      70.603    -362.918
  O     -521.724      71.567    -363.899
  C     -519.897      70.797    -362.522
  O     -519.624      72.167    -362.169
  C     -519.496      70.017    -361.276
  O     -519.415      68.630    -361.496
  C     -518.163      70.677    -360.958
  O     -517.119      70.165    -361.805
  C     -518.461      72.161    -361.297
  N     -518.674      72.972    -360.113
  C     -518.147      74.272    -360.168
  O     -517.563      74.660    -361.177
  N     -518.267      75.077    -359.068
  C     -518.891      74.641    -358.016
  N     -518.971      75.492    -356.947
  C     -519.486      73.300    -357.923
  C     -519.331      72.520    -358.987
  O     -523.880      72.486    -363.007
  O     -523.452      72.528    -365.574
  H     -517.116      69.198    -361.679
  H     -523.766      71.974    -362.190
  H     -520.000      72.976    -357.023
  H     -519.737      71.516    -359.009
  H     -517.633      72.598    -361.875
  H     -517.847      70.504    -359.927
  H     -520.185      70.243    -360.449
  H     -519.270      70.532    -363.381
  H     -518.535      76.401    -357.036
  H     -521.527      69.588    -363.290
  H     -519.401      75.250    -356.065
  H     -522.013      70.758    -362.054
  P     -519.994      67.597    -360.429
  C     -519.669      65.626    -362.048
  O     -519.341      66.169    -360.776
  O     -521.489      67.579    -360.294
  O     -519.233      67.993    -359.072
  H     -518.265      67.926    -359.126
  H     -519.182      64.681    -362.169
  H     -519.344      66.296    -362.816
  H     -520.728      65.492    -362.116

 6  7  8  9  10  11  12  13  14  15  16  26  30  31  32  33  35 0
 6-311+G(2d,p)
 ****
 37  38 0
 6-311+G(2d,p)
 ****
 1  2  3  4  5  17  18  19  20  21  22  23  24  25 0
 3-21G
 ****
 27  28  29  34  36  39  40  41  42  43  44  45  46 0
 3-21G
 ****


