%nproc=1
%NoSave
%Mem=1900MB
#P OB98/GEN NMR

erre ene a

0 1
  C     -382.321     185.953     322.586
  O     -381.034     186.000     323.173
  H     -383.064     186.177     323.355
  H     -382.520     184.956     322.187
  H     -382.413     186.697     321.788
  P     -379.749     185.889     322.219
  C     -378.772     183.753     323.301
  O     -378.609     185.144     323.067
  C     -377.752     183.251     324.334
  O     -376.437     183.233     323.710
  C     -377.641     184.138     325.597
  O     -377.271     183.268     326.683
  C     -376.497     185.058     325.206
  O     -376.002     185.795     326.285
  C     -375.561     184.023     324.551
  N     -374.462     184.583     323.775
  C     -373.251     183.904     323.796
  O     -373.030     182.868     324.412
  N     -372.241     184.471     323.058
  C     -372.329     185.606     322.307
  O     -371.404     186.051     321.639
  C     -373.638     186.286     322.328
  C     -374.632     185.740     323.050
  O     -379.323     187.155     321.558
  O     -380.170     184.775     321.145
  H     -380.429     185.207     320.310
  H     -375.232     186.323     325.989
  H     -371.359     183.994     323.053
  H     -373.749     187.195     321.760
  H     -375.612     186.213     323.076
  H     -375.160     183.348     325.313
  H     -376.845     185.787     324.472
  H     -378.577     184.652     325.838
  H     -377.998     182.214     324.598
  H     -378.627     183.227     322.350
  H     -379.790     183.563     323.659
  P     -378.338     182.488     327.592
  C     -378.406     184.449     329.291
  O     -378.218     183.055     329.094
  O     -378.247     180.998     327.492
  O     -379.773     183.014     327.105
  H     -380.451     182.334     327.290
  H     -378.298     184.680     330.330
  H     -379.386     184.726     328.964
  H     -377.675     184.991     328.727

 6  7  8  9  10  11  12  13  14  15  16  27  31  32  33  34  35 0
 6-311+G(2d,p)
 ****
 36  37 0
 6-311+G(2d,p)
 ****
 1  2  3  4  5  17  18  19  20  21  22  23  24  25 0
 3-21G
 ****
 26  28  29  30  38  39  40  41  42  43  44  45 0
 3-21G
 ****


