%nproc=1
%NoSave
%Mem=1900MB
#P OB98/GEN NMR

erre ene a

0 1
  C     -636.289     589.322     -68.334
  O     -637.508     589.177     -69.031
  H     -636.330     590.244     -67.745
  H     -635.459     589.395     -69.045
  H     -636.118     588.481     -67.654
  P     -637.846     587.770     -69.710
  C     -636.720     585.598     -68.882
  O     -637.639     586.640     -68.589
  C     -636.733     584.532     -67.780
  O     -636.380     585.157     -66.517
  C     -638.138     583.933     -67.601
  O     -638.085     582.597     -67.103
  C     -638.751     584.829     -66.539
  O     -639.822     584.204     -65.830
  C     -637.542     585.145     -65.664
  N     -639.568     587.691     -61.737
  C     -639.873     586.428     -62.213
  N     -640.844     585.749     -61.550
  N     -639.295     585.886     -63.250
  C     -638.398     586.699     -63.859
  C     -638.028     587.982     -63.497
  C     -638.649     588.550     -62.320
  O     -638.431     589.674     -61.873
  N     -637.090     588.491     -64.363
  C     -636.898     587.534     -65.243
  N     -637.649     586.415     -64.971
  O     -636.606     587.515     -70.692
  O     -639.152     587.701     -70.447
  H     -640.157     584.846     -65.179
  H     -636.855     586.889     -71.399
  H     -640.021     588.051     -60.915
  H     -636.220     587.590     -66.087
  H     -637.392     584.367     -64.910
  H     -639.164     585.711     -67.033
  H     -641.440     586.206     -60.874
  H     -638.718     583.952     -68.517
  H     -641.289     584.984     -62.059
  H     -635.975     583.768     -67.983
  H     -635.732     586.057     -68.963
  H     -636.946     585.154     -69.858
  P     -638.201     581.389     -68.154
  C     -636.511     580.474     -69.981
  O     -636.744     581.001     -68.689
  O     -638.912     582.045     -69.421
  O     -638.953     580.197     -67.642
  H     -639.787     581.643     -69.568
  H     -635.464     580.294     -70.109
  H     -636.845     581.174     -70.718
  H     -637.047     579.555     -70.093

 6  7  8  9  10  11  12  13  14  15  26  29  33  34 0
 6-311+G(2d,p)
 ****
 36  38  39  40  41 0
 6-311+G(2d,p)
 ****
 1  2  3  4  5  16  17  18  19  20  21  22  23  24  25 0
 3-21G
 ****
 27  28  30  31  32  35  37  42  43  44  45  46  47 0
 3-21G
 ****
 48  49 0
 3-21G
 ****


