%nproc=1
%NoSave
%Mem=1900MB
#P OB98/GEN NMR

erre ene a

0 1
  C     -601.133     184.043     149.423
  O     -602.013     185.066     149.931
  P     -601.795     185.734     151.371
  C     -602.921     183.635     152.348
  O     -602.819     185.055     152.410
  C     -603.395     183.042     153.687
  O     -602.424     183.242     154.722
  C     -604.703     183.657     154.194
  O     -605.815     183.099     153.517
  C     -604.612     183.294     155.686
  O     -605.040     181.940     155.908
  C     -603.121     183.445     155.963
  N     -600.810     185.773     159.891
  C     -600.967     184.462     159.575
  N     -601.585     183.923     158.516
  C     -602.083     184.883     157.718
  C     -601.999     186.257     157.907
  C     -601.326     186.700     159.055
  N     -601.179     188.023     159.386
  N     -602.636     186.933     156.867
  C     -603.072     185.983     156.072
  N     -602.763     184.733     156.541
  O     -601.834     187.232     151.364
  O     -600.365     185.210     151.855
  H     -605.214     181.843     156.870
  H     -599.955     185.860     152.456
  H     -600.523     183.753     160.279
  H     -603.617     186.146     155.146
  H     -602.754     182.671     156.645
  H     -605.246     183.937     156.306
  H     -604.673     184.732     154.083
  H     -603.510     181.963     153.540
  H     -601.925     183.225     152.111
  H     -600.718     188.260     160.242
  H     -601.603     188.727     158.787
  H     -603.613     183.359     151.553
  P     -606.281     183.729     152.118
  C     -608.088     184.954     153.448
  O     -607.809     184.195     152.296
  O     -606.005     182.881     150.921
  O     -605.478     185.124     152.038
  H     -605.313     185.342     151.107
  H     -608.203     184.284     154.308
  H     -609.023     185.501     153.299
  H     -607.293     185.681     153.653
  H     -601.461     183.741     148.450
  H     -601.148     183.200     150.082
  H     -600.137     184.429     149.359

 3  4  5  6  7  8  9  10  11  12  22  25  29  30  31  32 0
 6-311+G(2d,p)
 ****
 33  36  37 0
 6-311+G(2d,p)
 ****
 1  2  13  14  15  16  17  18  19  20  21  23  24  26 0
 3-21G
 ****
 27  28  34  35  38  39  40  41  42  43  44  45  46  47  48 0
 3-21G
 ****


