%nproc=1
%NoSave
%Mem=1900MB
#P OB98/GEN NMR

erre ene a

0 1
  C      -82.023     -74.711     -29.164
  O      -82.146     -73.836     -28.060
  H      -81.237     -75.439     -28.947
  H      -81.745     -74.157     -30.064
  H      -82.960     -75.248     -29.333
  P      -83.237     -72.667     -28.138
  C      -81.378     -70.957     -28.673
  O      -82.607     -71.539     -29.088
  C      -80.367     -71.004     -29.812
  O      -80.352     -72.311     -30.418
  C      -80.651     -70.007     -30.935
  O      -80.183     -68.716     -30.582
  C      -79.865     -70.641     -32.070
  O      -78.460     -70.372     -31.896
  C      -80.151     -72.135     -31.848
  N      -81.821     -74.830     -35.804
  C      -80.532     -74.475     -35.451
  N      -79.555     -74.859     -36.301
  N      -80.234     -73.790     -34.378
  C      -81.320     -73.417     -33.664
  C      -82.644     -73.692     -33.919
  C      -82.958     -74.498     -35.080
  O      -84.084     -74.850     -35.418
  N      -83.469     -73.089     -33.006
  C      -82.643     -72.481     -32.177
  N      -81.326     -72.638     -32.542
  O      -83.741     -72.140     -26.828
  O      -84.410     -73.287     -29.030
  H      -78.372     -69.406     -31.791
  H      -85.090     -73.710     -28.473
  H      -81.987     -75.342     -36.653
  H      -82.943     -71.920     -31.301
  H      -79.308     -72.769     -32.143
  H      -80.149     -70.265     -33.052
  H      -79.752     -75.125     -37.257
  H      -81.711     -69.997     -31.210
  H      -78.610     -74.566     -36.088
  H      -79.370     -70.837     -29.383
  H      -81.015     -71.530     -27.814
  H      -81.535     -69.919     -28.363
  P      -81.209     -67.519     -30.271
  C      -80.135     -66.356     -32.313
  O      -81.341     -66.718     -31.652
  O      -80.851     -66.678     -29.094
  O      -82.631     -68.232     -30.148
  H      -82.839     -68.545     -29.233
  H      -80.367     -65.830     -33.216
  H      -79.578     -67.239     -32.548
  H      -79.553     -65.727     -31.673

 6  7  8  9  10  11  12  13  14  15  26  29  33  34 0
 6-311+G(2d,p)
 ****
 36  38  39  40  41 0
 6-311+G(2d,p)
 ****
 1  2  3  4  5  16  17  18  19  20  21  22  23  24  25 0
 3-21G
 ****
 27  28  30  31  32  35  37  42  43  44  45  46  47 0
 3-21G
 ****
 48  49 0
 3-21G
 ****


