%nproc=1
%NoSave
%Mem=1900MB
#P OB98/GEN NMR

erre ene a

0 1
  C     -781.800    -855.638    -191.879
  O     -780.823    -856.181    -192.753
  P     -779.818    -855.221    -193.554
  C     -779.750    -857.082    -195.353
  O     -779.919    -855.696    -195.087
  C     -779.957    -857.361    -196.846
  O     -781.358    -857.307    -197.145
  C     -779.286    -856.354    -197.770
  O     -777.890    -856.586    -197.859
  C     -780.065    -856.586    -199.056
  O     -779.577    -857.743    -199.747
  C     -781.505    -856.850    -198.520
  N     -782.369    -855.667    -198.597
  C     -782.913    -855.384    -199.865
  O     -782.660    -856.121    -200.829
  N     -783.758    -854.310    -199.991
  C     -784.032    -853.577    -198.952
  N     -784.926    -852.557    -199.114
  C     -783.433    -853.810    -197.622
  C     -782.619    -854.864    -197.523
  O     -778.423    -855.176    -193.006
  O     -780.534    -853.793    -193.577
  H     -778.679    -857.548    -200.030
  H     -780.327    -853.237    -192.790
  H     -783.661    -853.146    -196.787
  H     -782.162    -855.123    -196.564
  H     -781.963    -857.684    -199.073
  H     -780.023    -855.734    -199.770
  H     -779.464    -855.335    -197.416
  H     -779.583    -858.376    -197.064
  H     -785.439    -852.543    -199.987
  H     -780.483    -857.650    -194.774
  H     -785.392    -852.139    -198.327
  H     -778.738    -857.396    -195.025
  P     -776.916    -855.427    -197.337
  C     -775.073    -856.924    -198.390
  O     -775.529    -855.603    -198.137
  O     -776.568    -855.904    -195.838
  O     -777.507    -854.051    -197.346
  H     -777.088    -855.381    -195.183
  H     -774.269    -856.862    -199.146
  H     -775.875    -857.542    -198.771
  H     -774.643    -857.351    -197.481
  H     -782.369    -856.432    -191.442
  H     -782.453    -854.993    -192.430
  H     -781.316    -855.079    -191.106

 3  4  5  6  7  8  9  10  11  12  13  23  27  28  29  30  32 0
 6-311+G(2d,p)
 ****
 34  35 0
 6-311+G(2d,p)
 ****
 1  2  14  15  16  17  18  19  20  21  22  24  25  26 0
 3-21G
 ****
 31  33  36  37  38  39  40  41  42  43  44  45  46 0
 3-21G
 ****


