%nproc=1
%NoSave
%Mem=1900MB
#P OB98/GEN NMR

erre ene a

0 1
  C     -377.087     -17.605     220.315
  O     -378.219     -17.384     219.487
  P     -377.966     -17.157     217.917
  C     -378.668     -14.620     218.088
  O     -377.682     -15.586     217.745
  C     -378.136     -13.208     217.836
  O     -376.878     -13.033     218.521
  C     -377.854     -12.891     216.372
  O     -379.044     -12.622     215.649
  C     -376.903     -11.705     216.507
  O     -377.649     -10.496     216.752
  C     -376.084     -12.094     217.756
  N     -374.773     -12.645     217.437
  C     -373.667     -11.892     217.829
  O     -373.768     -10.811     218.416
  N     -372.441     -12.406     217.503
  C     -372.218     -13.547     216.788
  O     -371.097     -13.941     216.487
  C     -373.414     -14.289     216.370
  C     -374.620     -13.812     216.710
  O     -379.445     -17.367     217.345
  O     -376.927     -18.070     217.350
  H     -380.126     -17.154     218.013
  H     -378.270     -10.698     217.475
  H     -371.631     -11.892     217.796
  H     -373.276     -15.192     215.790
  H     -375.515     -14.338     216.406
  H     -375.945     -11.216     218.404
  H     -376.303     -11.543     215.607
  H     -377.321     -13.735     215.903
  H     -378.856     -12.490     218.252
  H     -378.924     -14.730     219.144
  H     -379.570     -14.808     217.491
  P     -378.969     -12.791     214.047
  C     -378.701     -10.201     213.791
  O     -378.210     -11.493     213.496
  O     -380.501     -12.562     213.644
  O     -378.401     -14.101     213.612
  H     -380.916     -11.821     214.132
  H     -377.893      -9.478     213.651
  H     -379.060     -10.140     214.825
  H     -379.517      -9.956     213.107
  H     -377.406     -17.739     221.327
  H     -376.432     -16.761     220.256
  H     -376.570     -18.482     219.985

 3  4  5  6  7  8  9  10  11  12  13  24  28  29  30  31  32 0
 6-311+G(2d,p)
 ****
 33  34 0
 6-311+G(2d,p)
 ****
 1  2  14  15  16  17  18  19  20  21  22  23  25  26  27 0
 3-21G
 ****
 35  36  37  38  39  40  41  42  43  44  45 0
 3-21G
 ****


