%nproc=1
%NoSave
%Mem=1900MB
#P OB98/GEN NMR

erre ene a

0 1
  C      -72.753    -231.982       6.489
  O      -74.158    -232.089       6.743
  P      -74.846    -233.524       6.535
  C      -74.525    -234.595       8.880
  O      -75.432    -234.025       7.945
  C      -75.130    -234.643      10.292
  O      -75.231    -233.308      10.858
  C      -76.543    -235.243      10.330
  O      -76.722    -235.887      11.598
  C      -77.425    -234.014      10.270
  O      -78.752    -234.298      10.723
  C      -76.626    -233.057      11.150
  N      -79.895    -229.374      12.246
  C      -79.873    -230.699      12.646
  N      -80.850    -231.080      13.497
  N      -78.975    -231.560      12.253
  C      -78.042    -231.020      11.433
  C      -77.956    -229.733      10.958
  C      -78.972    -228.796      11.379
  O      -79.052    -227.613      11.047
  N      -76.876    -229.572      10.127
  C      -76.311    -230.769      10.096
  N      -76.958    -231.665      10.902
  O      -73.588    -234.490       6.291
  O      -75.798    -233.577       5.387
  H      -78.682    -234.661      11.633
  H      -73.559    -234.760       5.354
  H      -80.619    -228.752      12.567
  H      -75.438    -231.029       9.516
  H      -76.784    -233.237      12.223
  H      -77.490    -233.649       9.241
  H      -81.545    -230.458      13.877
  H      -76.760    -235.962       9.530
  H      -80.836    -232.036      13.844
  H      -74.464    -235.221      10.935
  H      -73.596    -234.014       8.905
  H      -74.243    -235.593       8.535
  P      -76.591    -237.483      11.632
  C      -74.142    -238.104      12.225
  O      -75.439    -237.809      12.696
  O      -75.909    -237.835      10.223
  O      -77.878    -238.214      11.826
  H      -76.129    -238.745       9.957
  H      -73.498    -237.229      12.376
  H      -74.140    -238.375      11.164
  H      -73.736    -238.949      12.797
  H      -72.434    -230.976       6.667
  H      -72.554    -232.244       5.471
  H      -72.222    -232.645       7.139

 3  4  5  6  7  8  9  10  11  12  23  26  30  31 0
 6-311+G(2d,p)
 ****
 33  35  36  37  38 0
 6-311+G(2d,p)
 ****
 1  2  13  14  15  16  17  18  19  20  21  22  24  25 0
 3-21G
 ****
 27  28  29  32  34  39  40  41  42  43  44  45  46  47  48  49 0
 3-21G
 ****


