%nproc=1
%NoSave
%Mem=1900MB
#P OB98/GEN NMR

erre ene a

0 1
  C     -334.149    -689.288    -102.843
  O     -333.644    -687.998    -103.129
  H     -335.123    -689.178    -102.356
  H     -333.479    -689.816    -102.159
  H     -334.281    -689.865    -103.761
  P     -332.297    -687.875    -103.988
  C     -330.786    -688.977    -102.218
  O     -331.080    -687.792    -102.948
  C     -329.529    -688.765    -101.374
  O     -328.374    -688.624    -102.225
  C     -329.566    -687.501    -100.530
  O     -330.410    -687.653     -99.393
  C     -328.092    -687.323    -100.209
  O     -327.691    -688.157     -99.114
  C     -327.424    -687.793    -101.523
  N     -326.992    -686.667    -102.352
  C     -325.747    -686.127    -102.047
  O     -325.021    -686.547    -101.157
  N     -325.386    -685.028    -102.782
  C     -326.185    -684.353    -103.666
  O     -325.915    -683.242    -104.106
  C     -327.468    -685.008    -103.986
  C     -327.808    -686.108    -103.316
  O     -332.305    -686.813    -105.041
  O     -332.124    -689.332    -104.626
  H     -332.410    -689.308    -105.559
  H     -328.230    -687.868     -98.350
  H     -324.501    -684.602    -102.543
  H     -328.096    -684.545    -104.738
  H     -328.759    -686.590    -103.512
  H     -326.555    -688.427    -101.304
  H     -327.857    -686.291     -99.945
  H     -329.907    -686.655    -101.131
  H     -329.383    -689.656    -100.744
  H     -330.608    -689.793    -102.929
  H     -331.646    -689.232    -101.582
  P     -331.444    -686.501     -98.996
  C     -329.689    -684.741     -98.332
  O     -330.752    -685.570     -97.884
  O     -332.814    -686.965     -98.656
  O     -331.471    -685.538    -100.284
  H     -332.405    -685.383    -100.538
  H     -329.310    -684.171     -97.509
  H     -330.050    -684.077     -99.090
  H     -328.907    -685.350     -98.735

 6  7  8  9  10  11  12  13  14  15  16  27  31  32  33  34  35 0
 6-311+G(2d,p)
 ****
 36  37 0
 6-311+G(2d,p)
 ****
 1  2  3  4  5  17  18  19  20  21  22  23  24  25 0
 3-21G
 ****
 26  28  29  30  38  39  40  41  42  43  44  45 0
 3-21G
 ****


