%nproc=1
%NoSave
%Mem=1900MB
#P OB98/GEN NMR

erre ene a

0 1
  C     -253.609      37.419     254.748
  O     -253.800      38.809     254.949
  P     -252.608      39.799     254.524
  C     -251.683      39.842     256.993
  O     -251.452      39.582     255.613
  C     -250.470      39.419     257.820
  O     -250.279      37.991     257.714
  C     -249.151      40.042     257.376
  O     -249.031      41.387     257.803
  C     -248.145      39.079     258.001
  O     -247.963      39.390     259.397
  C     -248.863      37.723     257.844
  N     -248.367      36.937     256.719
  C     -247.138      36.309     256.895
  O     -246.482      36.394     257.936
  N     -246.672      35.590     255.823
  C     -247.271      35.494     254.602
  O     -246.785      34.874     253.663
  C     -248.548      36.204     254.461
  C     -249.033      36.881     255.508
  O     -253.257      41.216     254.896
  O     -252.196      39.643     253.097
  H     -253.916      41.136     255.610
  H     -248.858      39.429     259.788
  H     -245.795      35.108     255.938
  H     -249.050      36.158     253.499
  H     -249.968      37.418     255.421
  H     -248.750      37.127     258.761
  H     -247.162      39.129     257.525
  H     -249.068      39.996     256.279
  H     -250.671      39.659     258.874
  H     -252.562      39.282     257.318
  H     -251.888      40.913     257.120
  P     -248.326      42.408     256.774
  C     -246.039      41.916     257.935
  O     -246.777      42.013     256.737
  O     -248.371      43.772     257.615
  O     -249.006      42.480     255.442
  H     -248.141      43.646     258.558
  H     -245.147      41.306     257.752
  H     -246.629      41.450     258.732
  H     -245.725      42.913     258.253
  H     -254.479      36.889     255.075
  H     -252.759      37.091     255.310
  H     -253.445      37.228     253.708

 3  4  5  6  7  8  9  10  11  12  13  24  28  29  30  31  32 0
 6-311+G(2d,p)
 ****
 33  34 0
 6-311+G(2d,p)
 ****
 1  2  14  15  16  17  18  19  20  21  22  23  25  26  27 0
 3-21G
 ****
 35  36  37  38  39  40  41  42  43  44  45 0
 3-21G
 ****


