%nproc=1
%NoSave
%Mem=1900MB
#P OB98/GEN NMR

erre ene a

0 1
  C       86.312     -92.976     -41.597
  O       86.609     -92.258     -40.417
  H       86.318     -94.044     -41.364
  H       87.068     -92.783     -42.362
  H       85.322     -92.707     -41.972
  P       86.666     -90.656     -40.491
  C       84.110     -90.293     -40.716
  O       85.254     -90.185     -39.882
  C       83.008     -91.070     -40.003
  O       83.292     -92.486     -39.985
  C       82.811     -90.704     -38.536
  O       82.175     -89.450     -38.340
  C       81.944     -91.866     -38.090
  O       80.600     -91.681     -38.567
  C       82.639     -93.044     -38.809
  N       83.612     -93.729     -37.959
  C       83.107     -94.381     -36.828
  O       81.904     -94.357     -36.574
  N       83.986     -95.019     -35.984
  C       85.258     -94.989     -36.235
  N       86.081     -95.631     -35.363
  C       85.835     -94.297     -37.405
  C       84.965     -93.700     -38.217
  O       87.018     -90.073     -41.821
  O       87.676     -90.236     -39.322
  H       80.661     -91.511     -39.524
  H       87.754     -89.252     -39.331
  H       86.903     -94.277     -37.554
  H       85.315     -93.164     -39.094
  H       81.903     -93.776     -39.165
  H       81.889     -91.972     -37.004
  H       83.760     -90.746     -37.990
  H       82.084     -90.934     -40.579
  H       85.658     -96.096     -34.571
  H       84.409     -90.794     -41.641
  H       87.090     -95.596     -35.439
  H       83.728     -89.297     -40.957
  P       82.395     -88.737     -36.916
  C       84.371     -87.157     -37.565
  O       82.999     -87.288     -37.229
  O       83.624     -89.546     -36.293
  O       81.197     -88.726     -36.019
  H       83.307     -90.222     -35.662
  H       84.598     -86.126     -37.740
  H       84.577     -87.723     -38.449
  H       84.972     -87.523     -36.759

 6  7  8  9  10  11  12  13  14  15  16  26  30  31  32  33  35 0
 6-311+G(2d,p)
 ****
 37  38 0
 6-311+G(2d,p)
 ****
 1  2  3  4  5  17  18  19  20  21  22  23  24  25 0
 3-21G
 ****
 27  28  29  34  36  39  40  41  42  43  44  45  46 0
 3-21G
 ****


