%nproc=1
%NoSave
%Mem=1900MB
#P OB98/GEN NMR

erre ene a

0 1
  C     -536.447      -2.230    -494.256
  O     -537.529      -1.979    -493.386
  P     -537.322      -1.055    -492.090
  C     -539.765      -0.260    -492.213
  O     -538.748      -0.830    -491.389
  C     -541.081      -0.146    -491.434
  O     -541.652      -1.453    -491.180
  C     -540.924       0.491    -490.063
  O     -540.706       1.894    -490.138
  C     -542.253       0.077    -489.410
  O     -543.306       0.954    -489.816
  C     -542.446      -1.337    -489.988
  N     -542.132      -2.384    -489.008
  C     -543.217      -3.044    -488.430
  O     -544.374      -2.679    -488.677
  N     -542.964      -4.089    -487.589
  C     -541.752      -4.366    -487.246
  N     -541.559      -5.450    -486.444
  C     -540.575      -3.595    -487.709
  C     -540.846      -2.632    -488.603
  O     -536.536       0.194    -492.321
  O     -536.565      -2.015    -491.055
  H     -535.776      -1.548    -490.692
  H     -544.128       0.615    -489.412
  H     -539.584      -3.816    -487.350
  H     -540.045      -2.016    -489.030
  H     -543.497      -1.456    -490.314
  H     -542.199       0.119    -488.317
  H     -540.087       0.022    -489.515
  H     -541.794       0.427    -492.047
  H     -542.377      -5.965    -486.153
  H     -539.915      -0.906    -493.089
  H     -540.669      -5.943    -486.383
  H     -539.442       0.716    -492.560
  P     -540.070       2.597    -488.856
  C     -538.218       4.141    -489.809
  O     -539.536       4.043    -489.314
  O     -538.713       1.771    -488.601
  O     -540.950       2.595    -487.642
  H     -538.559       1.684    -487.637
  H     -538.135       5.067    -490.403
  H     -537.974       3.298    -490.463
  H     -537.510       4.184    -488.983
  H     -536.772      -2.861    -495.057
  H     -535.661      -2.715    -493.717
  H     -536.088      -1.304    -494.654

 3  4  5  6  7  8  9  10  11  12  13  24  27  28  29  30  32 0
 6-311+G(2d,p)
 ****
 34  35 0
 6-311+G(2d,p)
 ****
 1  2  14  15  16  17  18  19  20  21  22  23  25  26 0
 3-21G
 ****
 31  33  36  37  38  39  40  41  42  43  44  45  46 0
 3-21G
 ****


