%nproc=1
%NoSave
%Mem=1900MB
#P OB98/GEN NMR

erre ene a

0 1
  C     -158.894     251.954    -891.957
  O     -158.564     252.091    -893.327
  H     -157.967     251.825    -891.387
  H     -159.519     251.062    -891.807
  H     -159.412     252.833    -891.587
  P     -159.732     252.438    -894.367
  C     -159.834     250.086    -895.427
  O     -160.519     251.075    -894.667
  C     -160.507     248.722    -895.257
  O     -160.520     248.361    -893.847
  C     -161.987     248.712    -895.687
  O     -162.079     248.640    -897.117
  C     -162.474     247.462    -894.967
  O     -162.111     246.272    -895.677
  C     -161.716     247.564    -893.617
  N     -162.534     248.122    -892.527
  C     -163.086     247.223    -891.657
  O     -162.950     245.982    -891.767
  N     -163.846     247.761    -890.657
  C     -164.171     249.075    -890.507
  O     -164.935     249.493    -889.617
  C     -163.587     249.986    -891.497
  C     -162.797     249.486    -892.437
  O     -159.302     253.209    -895.587
  O     -160.771     253.284    -893.487
  H     -162.506     246.349    -896.557
  H     -160.713     254.233    -893.717
  H     -164.277     247.107    -889.987
  H     -163.809     251.041    -891.397
  H     -162.343     250.139    -893.167
  H     -161.346     246.569    -893.317
  H     -163.568     247.455    -894.847
  H     -162.501     249.583    -895.297
  H     -159.929     247.977    -895.797
  H     -158.782     250.026    -895.087
  H     -159.849     250.379    -896.497
  P     -163.475     249.006    -897.847
  C     -163.685     246.730    -899.047
  O     -164.286     247.657    -898.107
  O     -163.359     249.923    -899.007
  O     -164.323     249.726    -896.647
  H     -164.530     250.647    -896.927
  H     -164.309     245.866    -899.144
  H     -162.721     246.435    -898.689
  H     -163.582     247.205    -900.000

 6  7  8  9  10  11  12  13  14  15  16  26  31  32  33  34  35 0
 6-311+G(2d,p)
 ****
 36  37 0
 6-311+G(2d,p)
 ****
 1  2  3  4  5  17  18  19  20  21  22  23  24  25 0
 3-21G
 ****
 27  28  29  30  38  39  40  41  42  43  44  45 0
 3-21G
 ****


