%nproc=1
%NoSave
%Mem=1900MB
#P OB98/GEN NMR

erre ene a

0 1
  C     -976.548     191.592     -88.280
  O     -976.276     190.206     -88.306
  H     -977.100     191.825     -87.365
  H     -977.168     191.863     -89.140
  H     -975.620     192.170     -88.289
  P     -975.281     189.672     -89.439
  C     -976.895     189.151     -91.410
  O     -976.118     188.637     -90.338
  C     -978.034     188.188     -91.744
  O     -977.456     186.930     -92.201
  C     -978.945     187.866     -90.547
  O     -980.285     187.724     -91.028
  C     -978.435     186.510     -90.083
  O     -979.386     185.753     -89.351
  C     -978.053     185.873     -91.421
  N     -977.126     184.751     -91.270
  C     -977.679     183.478     -91.128
  O     -978.879     183.225     -91.214
  N     -976.779     182.474     -90.888
  C     -975.435     182.611     -90.739
  O     -974.688     181.672     -90.498
  C     -974.909     183.982     -90.885
  C     -975.769     184.967     -91.140
  O     -974.278     188.729     -88.624
  O     -974.566     190.731     -90.215
  H     -973.514     189.241     -88.297
  H     -979.518     186.195     -88.490
  H     -977.168     181.545     -90.779
  H     -973.848     184.126     -90.768
  H     -975.418     185.991     -91.229
  H     -978.951     185.536     -91.953
  H     -977.545     186.645     -89.447
  H     -978.913     188.610     -89.748
  H     -978.614     188.598     -92.575
  H     -976.257     189.268     -92.296
  H     -977.293     190.134     -91.128
  P     -981.187     189.045     -91.105
  C     -981.877     189.156     -88.577
  O     -982.259     188.908     -89.925
  O     -982.016     188.778     -92.440
  O     -980.383     190.301     -91.100
  H     -982.236     187.838     -92.569
  H     -982.722     189.016     -87.935
  H     -981.523     190.162     -88.486
  H     -981.099     188.477     -88.296

 6  7  8  9  10  11  12  13  14  15  16  27  31  32  33  34  35 0
 6-311+G(2d,p)
 ****
 36  37 0
 6-311+G(2d,p)
 ****
 1  2  3  4  5  17  18  19  20  21  22  23  24  25 0
 3-21G
 ****
 26  28  29  30  38  39  40  41  42  43  44  45 0
 3-21G
 ****


