%nproc=1
%NoSave
%Mem=1900MB
#P OB98/GEN NMR

erre ene a

0 1
  C     -209.825     -26.134    -403.963
  O     -209.453     -25.388    -405.104
  H     -210.483     -26.960    -404.248
  H     -208.921     -26.549    -403.507
  H     -210.326     -25.492    -403.234
  P     -210.642     -24.682    -405.922
  C     -210.418     -25.374    -408.418
  O     -210.069     -24.442    -407.403
  C     -209.793     -24.948    -409.742
  O     -210.400     -23.723    -410.208
  C     -208.292     -24.666    -409.666
  O     -207.517     -25.853    -409.722
  C     -208.110     -23.826    -410.919
  O     -208.096     -24.674    -412.079
  C     -209.370     -22.956    -410.905
  N     -206.715     -18.582    -410.853
  C     -206.639     -19.675    -411.646
  N     -207.381     -20.805    -411.591
  C     -208.279     -20.729    -410.598
  C     -208.471     -19.690    -409.703
  C     -207.639     -18.566    -409.866
  N     -207.704     -17.458    -409.048
  N     -209.466     -19.999    -408.795
  C     -209.890     -21.194    -409.156
  N     -209.199     -21.682    -410.231
  O     -210.696     -23.203    -405.309
  O     -211.964     -25.371    -405.868
  H     -208.874     -25.261    -412.008
  H     -211.565     -22.795    -405.489
  H     -205.885     -19.639    -412.426
  H     -210.691     -21.742    -408.674
  H     -209.753     -22.751    -411.913
  H     -207.173     -23.263    -410.921
  H     -208.042     -24.065    -408.786
  H     -210.006     -25.733    -410.482
  H     -211.506     -25.405    -408.523
  H     -206.950     -16.791    -409.136
  H     -208.281     -17.500    -408.220
  H     -210.063     -26.371    -408.128
  P     -206.839     -26.356    -408.358
  C     -204.554     -26.776    -409.527
  O     -205.650     -27.329    -408.799
  O     -207.936     -27.348    -407.749
  O     -206.473     -25.264    -407.403
  H     -207.860     -27.408    -406.786
  H     -203.846     -27.548    -409.747
  H     -204.082     -26.016    -408.939
  H     -204.912     -26.349    -410.441

 6  7  8  9  10  11  12  13  14  15  25  28  32  33  34  35 0
 6-311+G(2d,p)
 ****
 36  39  40 0
 6-311+G(2d,p)
 ****
 1  2  3  4  5  16  17  18  19  20  21  22  23  24 0
 3-21G
 ****
 26  27  29  30  31  37  38  41  42  43  44  45  46  47 0
 3-21G
 ****
 48 0
 3-21G
 ****


