%nproc=1
%NoSave
%Mem=1900MB
#P OB98/GEN NMR

erre ene a

0 1
  C      525.482    -455.335     -11.569
  O      524.920    -454.078     -11.927
  P      524.520    -453.086     -10.725
  C      525.421    -450.815     -11.678
  O      524.288    -451.646     -11.391
  C      525.130    -449.955     -12.902
  O      525.214    -450.755     -14.103
  C      523.740    -449.332     -12.918
  O      523.728    -448.151     -12.129
  C      523.528    -449.069     -14.412
  O      524.205    -447.870     -14.816
  C      524.191    -450.312     -15.039
  N      520.591    -451.951     -18.191
  C      521.202    -450.716     -18.109
  N      520.830    -449.786     -19.033
  N      522.096    -450.409     -17.202
  C      522.354    -451.404     -16.335
  C      521.805    -452.679     -16.314
  C      520.849    -453.016     -17.344
  O      520.358    -454.132     -17.524
  N      522.300    -453.423     -15.267
  C      523.175    -452.616     -14.698
  N      523.261    -451.403     -15.316
  O      525.888    -452.929      -9.911
  O      523.384    -453.564      -9.873
  H      525.171    -448.025     -14.835
  H      525.888    -453.525      -9.127
  H      519.917    -452.138     -18.919
  H      523.794    -452.877     -13.843
  H      524.699    -450.067     -15.981
  H      522.478    -448.947     -14.670
  H      520.130    -449.951     -19.743
  H      522.986    -450.041     -12.558
  H      521.265    -448.884     -18.984
  H      525.911    -449.176     -12.965
  H      526.285    -451.447     -11.869
  H      525.622    -450.186     -10.800
  P      522.289    -447.591     -11.656
  C      523.314    -447.071      -9.318
  O      522.555    -446.608     -10.419
  O      521.598    -448.872     -10.986
  O      521.451    -447.034     -12.758
  H      520.634    -448.864     -11.175
  H      523.828    -446.224      -8.859
  H      524.050    -447.823      -9.631
  H      522.641    -447.526      -8.583
  H      525.701    -455.893     -12.455
  H      524.784    -455.879     -10.968
  H      526.384    -455.178     -11.015

 3  4  5  6  7  8  9  10  11  12  23  26  30  31 0
 6-311+G(2d,p)
 ****
 33  35  36  37  38 0
 6-311+G(2d,p)
 ****
 1  2  13  14  15  16  17  18  19  20  21  22  24  25 0
 3-21G
 ****
 27  28  29  32  34  39  40  41  42  43  44  45  46  47  48  49 0
 3-21G
 ****


