%nproc=1
%NoSave
%Mem=1900MB
#P OB98/GEN NMR

erre ene a

0 1
  C     -112.652    -206.933     255.643
  O     -113.380    -208.159     255.782
  P     -113.342    -208.863     257.229
  C     -111.248    -210.372     256.926
  O     -111.809    -209.234     257.567
  C     -109.985    -210.864     257.657
  O     -108.890    -209.926     257.473
  C     -110.184    -211.038     259.167
  O     -109.359    -212.136     259.586
  C     -109.598    -209.753     259.738
  O     -109.268    -209.892     261.119
  C     -108.421    -209.539     258.783
  N     -105.918    -206.008     261.505
  C     -106.236    -207.294     261.763
  N     -106.925    -208.170     260.993
  C     -107.268    -207.589     259.825
  C     -107.023    -206.289     259.419
  C     -106.312    -205.469     260.318
  N     -106.022    -204.149     260.065
  N     -107.571    -206.055     258.167
  C     -108.139    -207.203     257.830
  N     -107.952    -208.167     258.783
  O     -114.019    -210.290     256.957
  O     -114.068    -208.103     258.293
  H     -108.639    -210.642     261.205
  H     -114.909    -210.314     257.358
  H     -105.890    -207.676     262.723
  H     -108.695    -207.381     256.924
  H     -107.560    -210.179     259.037
  H     -110.331    -208.939     259.637
  H     -111.218    -211.206     259.479
  H     -109.684    -211.821     257.213
  H     -110.997    -210.130     255.893
  H     -105.538    -203.622     260.775
  H     -106.350    -203.724     259.212
  H     -112.009    -211.162     256.871
  P     -110.071    -213.574     259.652
  C     -110.489    -213.411     262.205
  O     -111.054    -213.531     260.916
  O     -108.890    -214.559     260.116
  O     -110.684    -214.016     258.355
  H     -109.071    -215.471     259.817
  H     -111.114    -212.727     262.802
  H     -109.468    -213.023     262.181
  H     -110.488    -214.392     262.691
  H     -112.755    -206.568     254.642
  H     -111.618    -207.107     255.854
  H     -113.039    -206.208     256.329

 3  4  5  6  7  8  9  10  11  12  22  25  29  30  31  32 0
 6-311+G(2d,p)
 ****
 33  36  37 0
 6-311+G(2d,p)
 ****
 1  2  13  14  15  16  17  18  19  20  21  23  24  26 0
 3-21G
 ****
 27  28  34  35  38  39  40  41  42  43  44  45  46  47  48 0
 3-21G
 ****


