%nproc=1
%NoSave
%Mem=1900MB
#P OB98/GEN NMR

erre ene a

0 1
  C     -598.589    -194.740    -407.879
  O     -599.902    -194.992    -407.424
  P     -601.018    -193.847    -407.508
  C     -601.523    -191.585    -406.400
  O     -600.576    -192.640    -406.552
  C     -601.523    -191.076    -404.958
  O     -600.328    -190.314    -404.676
  C     -602.677    -190.139    -404.637
  O     -603.909    -190.824    -404.528
  C     -602.177    -189.504    -403.345
  O     -602.419    -190.367    -402.223
  C     -600.666    -189.385    -403.618
  N     -600.262    -188.030    -403.953
  C     -600.271    -187.108    -402.901
  O     -600.682    -187.431    -401.789
  N     -599.822    -185.835    -403.145
  C     -599.513    -185.478    -404.353
  N     -599.020    -184.223    -404.522
  C     -599.644    -186.379    -405.518
  C     -599.999    -187.631    -405.245
  O     -602.424    -194.314    -407.320
  O     -600.821    -193.226    -408.972
  H     -601.693    -193.194    -409.419
  H     -602.227    -189.837    -401.423
  H     -599.443    -186.013    -406.515
  H     -600.098    -188.368    -406.035
  H     -600.096    -189.719    -402.740
  H     -602.674    -188.552    -403.129
  H     -602.753    -189.367    -405.415
  H     -601.542    -191.949    -404.294
  H     -598.923    -183.639    -403.700
  H     -602.515    -191.964    -406.660
  H     -598.458    -183.964    -405.330
  H     -601.270    -190.777    -407.094
  P     -605.200    -190.098    -405.150
  C     -606.386    -187.817    -404.837
  O     -605.263    -188.621    -404.530
  O     -606.421    -190.861    -404.451
  O     -605.296    -190.169    -406.640
  H     -607.162    -190.947    -405.081
  H     -606.452    -187.018    -404.089
  H     -607.312    -188.397    -404.822
  H     -606.246    -187.363    -405.822
  H     -597.990    -195.616    -407.743
  H     -598.168    -193.930    -407.321
  H     -598.615    -194.483    -408.917

 3  4  5  6  7  8  9  10  11  12  13  24  27  28  29  30  32 0
 6-311+G(2d,p)
 ****
 34  35 0
 6-311+G(2d,p)
 ****
 1  2  14  15  16  17  18  19  20  21  22  23  25  26 0
 3-21G
 ****
 31  33  36  37  38  39  40  41  42  43  44  45  46 0
 3-21G
 ****


