%nproc=1
%NoSave
%Mem=1900MB
#P OB98/GEN NMR

erre ene a

0 1
  C      -12.792     -72.457     242.782
  O      -11.790     -72.126     241.816
  P      -11.752     -70.647     241.202
  C      -13.346     -70.836     239.176
  O      -13.164     -70.340     240.497
  C      -14.343     -69.954     238.393
  O      -15.659     -70.039     239.002
  C      -13.931     -68.473     238.359
  O      -13.927     -67.923     237.036
  C      -14.878     -67.817     239.352
  O      -15.057     -66.427     239.108
  C      -16.130     -68.702     239.255
  N      -16.952     -68.617     240.470
  C      -17.774     -67.502     240.591
  O      -17.771     -66.571     239.781
  N      -18.553     -67.454     241.721
  C      -18.539     -68.352     242.742
  O      -19.224     -68.245     243.756
  C      -17.601     -69.483     242.587
  C      -16.867     -69.560     241.472
  O      -10.552     -70.320     240.371
  O      -11.814     -69.714     242.509
  H      -15.431     -66.316     238.207
  H      -11.222     -68.946     242.355
  H      -19.163     -66.657     241.818
  H      -17.547     -70.206     243.392
  H      -16.164     -70.375     241.335
  H      -16.764     -68.391     238.412
  H      -14.453     -67.917     240.358
  H      -12.898     -68.333     238.702
  H      -14.401     -70.362     237.378
  H      -13.737     -71.851     239.218
  H      -12.380     -70.892     238.670
  P      -12.640     -67.824     236.098
  C      -11.916     -65.667     237.352
  O      -11.533     -66.936     236.847
  O      -12.891     -67.439     234.678
  O      -12.027     -69.308     236.168
  H      -11.709     -69.562     235.280
  H      -11.010     -65.056     237.481
  H      -12.408     -65.787     238.320
  H      -12.591     -65.146     236.659
  H      -12.673     -73.477     243.084
  H      -13.762     -72.324     242.350
  H      -12.691     -71.818     243.634

 3  4  5  6  7  8  9  10  11  12  13  23  28  29  30  31  32 0
 6-311+G(2d,p)
 ****
 33  34 0
 6-311+G(2d,p)
 ****
 1  2  14  15  16  17  18  19  20  21  22  24  25  26  27 0
 3-21G
 ****
 35  36  37  38  39  40  41  42  43  44  45 0
 3-21G
 ****


