%nproc=1
%NoSave
%Mem=1900MB
#P OB98/GEN NMR

erre ene a

0 1
  C     -385.010     373.025     165.171
  O     -384.368     373.083     163.911
  H     -384.269     372.737     165.926
  H     -385.813     372.285     165.168
  H     -385.410     374.010     165.433
  P     -385.290     373.231     162.602
  C     -385.726     370.716     162.199
  O     -386.277     371.963     162.627
  C     -386.616     370.054     161.143
  O     -387.909     369.741     161.711
  C     -386.910     370.944     159.942
  O     -385.795     371.182     159.115
  C     -388.158     370.298     159.357
  O     -387.879     369.228     158.459
  C     -388.857     369.743     160.625
  N     -390.061     370.502     160.962
  C     -391.158     370.304     160.128
  O     -391.135     369.558     159.144
  N     -392.278     371.025     160.435
  C     -392.388     371.946     161.435
  O     -393.414     372.597     161.630
  C     -391.188     372.134     162.268
  C     -390.096     371.418     161.995
  O     -384.556     373.405     161.303
  O     -386.263     374.452     162.961
  H     -388.738     368.816     158.232
  H     -386.693     374.812     162.147
  H     -393.084     370.889     159.846
  H     -391.240     372.863     163.073
  H     -389.196     371.536     162.601
  H     -389.156     368.698     160.468
  H     -388.766     371.025     158.811
  H     -387.226     371.924     160.319
  H     -386.146     369.115     160.832
  H     -385.664     370.063     163.078
  H     -384.716     370.875     161.800
  P     -385.671     372.460     158.164
  C     -386.204     371.064     156.033
  O     -386.539     372.193     156.837
  O     -384.308     373.063     158.012
  O     -386.585     373.535     158.954
  H     -386.183     374.414     158.816
  H     -386.863     371.017     155.192
  H     -386.303     370.171     156.614
  H     -385.195     371.157     155.690

 6  7  8  9  10  11  12  13  14  15  16  26  31  32  33  34  35 0
 6-311+G(2d,p)
 ****
 36  37 0
 6-311+G(2d,p)
 ****
 1  2  3  4  5  17  18  19  20  21  22  23  24  25 0
 3-21G
 ****
 27  28  29  30  38  39  40  41  42  43  44  45 0
 3-21G
 ****


