%nproc=1
%NoSave
%Mem=1900MB
#P OB98/GEN NMR

erre ene a

0 1
  C       38.188     488.336    -768.036
  O       39.341     488.192    -767.195
  P       40.611     489.126    -767.495
  C       42.243     487.563    -768.795
  O       41.295     488.607    -768.859
  C       43.077     487.512    -770.068
  O       43.815     488.741    -770.273
  C       44.113     486.393    -770.090
  O       43.553     485.150    -770.478
  C       45.077     486.892    -771.160
  O       44.531     486.593    -772.475
  C       45.074     488.417    -770.914
  N       49.843     490.095    -770.924
  C       49.033     489.749    -771.980
  N       49.545     489.887    -773.214
  N       47.798     489.320    -771.832
  C       47.410     489.252    -770.540
  C       48.130     489.558    -769.411
  C       49.498     490.029    -769.586
  O       50.284     490.318    -768.680
  N       47.399     489.346    -768.271
  C       46.223     488.945    -768.708
  N       46.187     488.848    -770.087
  O       41.657     488.658    -766.371
  O       40.323     490.588    -767.416
  H       45.138     487.000    -773.128
  H       42.259     489.405    -766.165
  H       50.797     490.414    -771.099
  H       45.373     488.700    -768.075
  H       45.125     488.987    -771.849
  H       46.053     486.419    -771.109
  H       50.462     490.252    -773.404
  H       44.639     486.329    -769.112
  H       48.931     489.679    -774.013
  H       42.393     487.372    -770.927
  H       41.728     486.596    -768.647
  H       42.874     487.701    -767.904
  P       42.987     484.181    -769.323
  C       45.417     483.279    -769.314
  O       44.271     483.594    -768.560
  O       42.420     482.931    -770.162
  O       41.925     484.806    -768.467
  H       41.654     482.538    -769.691
  H       46.245     483.050    -768.622
  H       45.732     484.117    -769.942
  H       45.233     482.399    -769.933
  H       37.427     487.654    -767.718
  H       38.457     488.124    -769.050
  H       37.819     489.338    -767.967

 3  4  5  6  7  8  9  10  11  12  23  26  30  31 0
 6-311+G(2d,p)
 ****
 33  35  36  37  38 0
 6-311+G(2d,p)
 ****
 1  2  13  14  15  16  17  18  19  20  21  22  24  25 0
 3-21G
 ****
 27  28  29  32  34  39  40  41  42  43  44  45  46  47  48  49 0
 3-21G
 ****


