%nproc=1
%NoSave
%Mem=1900MB
#P OB98/GEN NMR

erre ene a

0 1
  C     -263.340     562.230     290.903
  O     -263.860     560.942     291.156
  H     -262.409     562.351     291.461
  H     -264.049     562.990     291.232
  H     -263.130     562.357     289.834
  P     -265.119     560.483     290.273
  C     -264.801     557.990     290.921
  O     -265.662     559.119     290.924
  C     -265.476     556.812     291.623
  O     -266.885     556.787     291.314
  C     -264.924     555.448     291.223
  O     -263.741     555.124     291.942
  C     -266.081     554.550     291.634
  O     -266.069     554.364     293.065
  C     -267.295     555.394     291.219
  N     -271.292     554.092     288.387
  C     -271.189     554.252     289.756
  N     -272.311     554.029     290.476
  N     -270.086     554.596     290.366
  C     -269.042     554.782     289.524
  C     -269.024     554.652     288.152
  C     -270.250     554.278     287.487
  O     -270.401     554.142     286.282
  N     -267.785     554.931     287.642
  C     -267.050     555.203     288.702
  N     -267.767     555.123     289.869
  O     -264.448     559.992     288.902
  O     -266.146     561.534     290.027
  H     -266.078     555.252     293.468
  H     -265.041     560.228     288.161
  H     -272.162     553.809     287.970
  H     -265.997     555.471     288.678
  H     -268.151     555.255     291.889
  H     -266.026     553.561     291.182
  H     -273.176     553.708     290.074
  H     -264.778     555.374     290.138
  H     -272.269     554.172     291.478
  H     -265.379     556.969     292.705
  H     -263.875     558.242     291.451
  H     -264.565     557.724     289.884
  P     -262.431     554.762     291.088
  C     -261.082     555.791     293.051
  O     -261.226     554.705     292.149
  O     -262.145     556.110     290.274
  O     -262.569     553.580     290.186
  H     -261.619     555.913     289.473
  H     -260.244     555.614     293.692
  H     -261.969     555.884     293.642
  H     -260.925     556.694     292.499

 6  7  8  9  10  11  12  13  14  15  26  29  33  34 0
 6-311+G(2d,p)
 ****
 36  38  39  40  41 0
 6-311+G(2d,p)
 ****
 1  2  3  4  5  16  17  18  19  20  21  22  23  24  25 0
 3-21G
 ****
 27  28  30  31  32  35  37  42  43  44  45  46  47 0
 3-21G
 ****
 48  49 0
 3-21G
 ****


