%nproc=1
%NoSave
%Mem=1900MB
#P OB98/GEN NMR

erre ene a

0 1
  C      113.414     102.103     -37.250
  O      113.745     101.836     -35.905
  P      113.274     102.826     -34.737
  C      113.617     105.359     -34.426
  O      114.201     104.132     -34.852
  C      114.700     106.309     -33.923
  O      115.365     105.768     -32.750
  C      115.830     106.548     -34.915
  O      115.511     107.233     -36.107
  C      116.887     107.171     -34.018
  O      116.640     108.561     -33.809
  C      116.678     106.380     -32.701
  N      117.730     105.386     -32.489
  C      118.630     105.663     -31.465
  O      118.575     106.672     -30.763
  N      119.633     104.748     -31.288
  C      119.846     103.634     -32.047
  O      120.792     102.879     -31.862
  C      118.872     103.403     -33.124
  C      117.873     104.275     -33.295
  O      113.222     102.222     -33.374
  O      111.860     103.368     -35.262
  H      115.801     108.639     -33.314
  H      111.895     103.840     -36.113
  H      120.305     104.934     -30.560
  H      119.004     102.521     -33.738
  H      117.144     104.126     -34.085
  H      116.676     107.063     -31.842
  H      117.888     107.082     -34.449
  H      116.215     105.570     -35.233
  H      114.224     107.244     -33.619
  H      112.916     105.154     -33.610
  H      113.051     105.801     -35.252
  P      116.018     106.766     -37.552
  C      118.300     106.433     -38.736
  O      117.617     106.888     -37.590
  O      115.261     107.288     -38.729
  O      115.813     105.175     -37.467
  H      115.605     104.831     -38.356
  H      119.375     106.549     -38.572
  H      118.015     107.024     -39.613
  H      118.089     105.373     -38.917
  H      113.815     101.333     -37.876
  H      113.826     103.047     -37.538
  H      112.350     102.131     -37.357

 3  4  5  6  7  8  9  10  11  12  13  23  28  29  30  31  32 0
 6-311+G(2d,p)
 ****
 33  34 0
 6-311+G(2d,p)
 ****
 1  2  14  15  16  17  18  19  20  21  22  24  25  26  27 0
 3-21G
 ****
 35  36  37  38  39  40  41  42  43  44  45 0
 3-21G
 ****


