%nproc=1
%NoSave
%Mem=1900MB
#P OB98/GEN NMR

erre ene a

0 1
  C     -147.234     152.277    -280.702
  O     -147.386     151.146    -281.535
  H     -146.616     152.000    -279.844
  H     -148.208     152.616    -280.341
  H     -146.739     153.082    -281.250
  P     -148.360     151.316    -282.802
  C     -149.867     149.317    -282.068
  O     -148.952     149.837    -283.020
  C     -150.689     148.195    -282.693
  O     -151.448     148.687    -283.820
  C     -149.863     147.034    -283.239
  O     -149.394     146.154    -282.233
  C     -150.901     146.373    -284.129
  O     -151.849     145.658    -283.315
  C     -151.550     147.608    -284.790
  N     -150.907     147.986    -286.051
  C     -151.423     147.409    -287.216
  O     -152.367     146.623    -287.163
  N     -150.831     147.708    -288.420
  C     -149.828     148.529    -288.462
  N     -149.283     148.785    -289.680
  C     -149.261     149.169    -287.262
  C     -149.841     148.859    -286.105
  O     -147.347     151.473    -284.030
  O     -149.384     152.394    -282.701
  H     -152.276     145.002    -283.896
  H     -147.844     151.437    -284.884
  H     -148.415     149.838    -287.345
  H     -149.480     149.293    -285.179
  H     -152.616     147.438    -284.979
  H     -150.477     145.652    -284.828
  H     -149.036     147.388    -283.865
  H     -151.408     147.850    -281.940
  H     -149.655     148.284    -290.477
  H     -150.524     150.130    -281.743
  H     -148.413     149.287    -289.800
  H     -149.325     148.930    -281.200
  P     -147.952     146.463    -281.599
  C     -147.807     143.894    -281.209
  O     -147.558     145.198    -280.699
  O     -148.265     147.601    -280.521
  O     -146.911     146.896    -282.584
  H     -147.521     148.231    -280.451
  H     -147.490     143.165    -280.493
  H     -147.264     143.758    -282.121
  H     -148.854     143.778    -281.397

 6  7  8  9  10  11  12  13  14  15  16  26  30  31  32  33  35 0
 6-311+G(2d,p)
 ****
 37  38 0
 6-311+G(2d,p)
 ****
 1  2  3  4  5  17  18  19  20  21  22  23  24  25 0
 3-21G
 ****
 27  28  29  34  36  39  40  41  42  43  44  45  46 0
 3-21G
 ****


