%nproc=1
%NoSave
%Mem=1900MB
#P OB98/GEN NMR

erre ene a

0 1
  C     -889.280    -895.320     271.558
  O     -889.910    -895.350     270.301
  H     -888.200    -895.310     271.409
  H     -889.540    -896.210     272.143
  H     -889.570    -894.430     272.120
  P     -891.510    -895.370     270.249
  C     -891.090    -896.440     267.938
  O     -891.910    -895.560     268.708
  C     -891.950    -897.190     266.927
  O     -892.720    -898.220     267.576
  C     -892.960    -896.310     266.190
  O     -892.330    -895.600     265.119
  C     -893.940    -897.360     265.703
  O     -893.400    -898.050     264.562
  C     -894.010    -898.290     266.921
  N     -898.920    -898.690     268.150
  C     -898.240    -899.130     267.018
  N     -899.000    -899.730     266.063
  N     -896.960    -898.980     266.840
  C     -896.350    -898.310     267.845
  C     -896.920    -897.830     269.002
  C     -898.330    -898.030     269.218
  O     -898.960    -897.690     270.207
  N     -895.990    -897.150     269.762
  C     -894.870    -897.260     269.082
  N     -895.040    -897.950     267.901
  O     -892.220    -894.230     270.922
  O     -891.900    -896.770     270.907
  H     -892.590    -898.500     264.881
  H     -892.060    -896.700     271.865
  H     -899.920    -898.820     268.226
  H     -893.910    -896.880     269.396
  H     -894.180    -899.330     266.635
  H     -894.910    -896.930     265.404
  H     -900.000    -899.590     266.017
  H     -893.480    -895.620     266.876
  H     -898.540    -900.000     265.207
  H     -891.270    -897.680     266.213
  H     -890.620    -897.140     268.634
  H     -890.310    -895.880     267.423
  P     -892.190    -894.000     265.137
  C     -892.590    -893.290     262.699
  O     -891.640    -893.620     263.702
  O     -891.400    -893.460     266.285
  O     -893.700    -893.480     265.085
  H     -894.110    -893.390     265.982
  H     -892.080    -893.056     261.788
  H     -893.162    -892.443     263.015
  H     -893.243    -894.122     262.539

 6  7  8  9  10  11  12  13  14  15  26  29  33  34 0
 6-311+G(2d,p)
 ****
 36  38  39  40  41 0
 6-311+G(2d,p)
 ****
 1  2  3  4  5  16  17  18  19  20  21  22  23  24  25 0
 3-21G
 ****
 27  28  30  31  32  35  37  42  43  44  45  46  47 0
 3-21G
 ****
 48  49 0
 3-21G
 ****


