%nproc=1
%NoSave
%Mem=1900MB
#P OB98/GEN NMR

erre ene a

0 1
  C     -290.095    -644.424      64.241
  O     -290.492    -645.014      63.019
  H     -290.986    -644.053      64.753
  H     -289.420    -643.585      64.061
  H     -289.609    -645.169      64.881
  P     -289.350    -645.533      62.014
  C     -290.174    -643.843      60.229
  O     -289.089    -644.289      61.034
  C     -289.735    -643.706      58.774
  O     -290.828    -643.261      57.945
  C     -288.621    -642.690      58.530
  O     -287.343    -643.140      58.961
  C     -288.717    -642.556      57.022
  O     -288.115    -643.709      56.397
  C     -290.247    -642.541      56.811
  N     -290.798    -641.187      56.725
  C     -290.454    -640.440      55.588
  O     -289.709    -640.917      54.722
  N     -290.916    -639.147      55.482
  C     -291.646    -638.643      56.421
  N     -292.042    -637.347      56.287
  C     -292.059    -639.406      57.622
  C     -291.597    -640.661      57.708
  O     -289.611    -646.845      61.339
  O     -288.015    -645.531      62.900
  H     -288.338    -643.664      55.453
  H     -287.275    -645.862      62.325
  H     -292.663    -638.935      58.382
  H     -291.844    -641.271      58.571
  H     -290.521    -643.098      55.904
  H     -288.197    -641.668      56.633
  H     -288.862    -641.724      58.986
  H     -289.448    -644.706      58.420
  H     -291.707    -636.847      55.472
  H     -290.524    -642.882      60.625
  H     -292.369    -636.809      57.083
  H     -290.998    -644.563      60.273
  P     -286.253    -642.030      59.374
  C     -284.950    -642.601      57.191
  O     -285.502    -641.590      58.019
  O     -285.160    -642.885      60.161
  O     -286.772    -640.877      60.182
  H     -285.321    -642.875      61.122
  H     -284.489    -642.150      56.337
  H     -285.727    -643.263      56.870
  H     -284.217    -643.153      57.742

 6  7  8  9  10  11  12  13  14  15  16  26  30  31  32  33  35 0
 6-311+G(2d,p)
 ****
 37  38 0
 6-311+G(2d,p)
 ****
 1  2  3  4  5  17  18  19  20  21  22  23  24  25 0
 3-21G
 ****
 27  28  29  34  36  39  40  41  42  43  44  45  46 0
 3-21G
 ****


