%nproc=1
%NoSave
%Mem=1900MB
#P OB98/GEN NMR

erre ene a

0 1
  C      -58.591     215.423    -108.990
  O      -59.651     215.873    -108.172
  H      -58.904     215.494    -110.037
  H      -58.367     214.377    -108.761
  H      -57.696     216.031    -108.847
  P      -59.361     216.179    -106.628
  C      -60.504     217.649    -104.841
  O      -60.665     216.895    -106.033
  C      -61.850     218.201    -104.355
  O      -62.322     219.191    -105.307
  C      -62.920     217.104    -104.290
  O      -63.917     217.375    -103.311
  C      -63.553     217.167    -105.676
  O      -64.871     216.628    -105.711
  C      -63.488     218.668    -105.963
  N      -66.014     218.763    -110.394
  C      -66.376     218.181    -109.194
  N      -67.572     217.544    -109.171
  N      -65.628     218.203    -108.122
  C      -64.431     218.810    -108.309
  C      -63.950     219.401    -109.454
  C      -64.801     219.404    -110.628
  O      -64.518     219.881    -111.717
  N      -62.685     219.908    -109.262
  C      -62.402     219.621    -108.011
  N      -63.438     218.976    -107.380
  O      -58.299     217.382    -106.677
  O      -58.843     215.024    -105.827
  H      -64.868     215.807    -105.187
  H      -57.792     217.419    -105.845
  H      -66.639     218.742    -111.181
  H      -61.478     219.865    -107.511
  H      -64.368     219.179    -105.541
  H      -62.939     216.576    -106.361
  H      -68.079     217.338    -110.021
  H      -62.499     216.113    -104.104
  H      -67.708     216.862    -108.420
  H      -61.724     218.715    -103.394
  H      -59.811     218.464    -105.066
  H      -60.039     217.038    -104.065
  P      -63.874     216.568    -101.927
  C      -64.600     217.152     -99.452
  O      -64.786     217.301    -100.840
  O      -62.385     216.789    -101.399
  O      -64.216     215.108    -102.057
  H      -61.903     215.942    -101.370
  H      -65.328     217.737     -98.930
  H      -63.618     217.484     -99.186
  H      -64.713     216.122     -99.186

 6  7  8  9  10  11  12  13  14  15  26  29  33  34 0
 6-311+G(2d,p)
 ****
 36  38  39  40  41 0
 6-311+G(2d,p)
 ****
 1  2  3  4  5  16  17  18  19  20  21  22  23  24  25 0
 3-21G
 ****
 27  28  30  31  32  35  37  42  43  44  45  46  47 0
 3-21G
 ****
 48  49 0
 3-21G
 ****


