%nproc=1
%NoSave
%Mem=1900MB
#P OB98/GEN NMR

erre ene a

0 1
  C      704.561     272.119    -176.613
  O      704.941     271.641    -175.327
  P      705.458     270.133    -175.120
  C      703.115     269.403    -174.344
  O      704.148     269.223    -175.295
  C      701.854     268.636    -174.766
  O      701.318     269.274    -175.953
  C      702.071     267.169    -175.166
  O      702.088     266.268    -174.072
  C      700.823     266.932    -176.013
  O      699.690     266.710    -175.156
  C      700.685     268.256    -176.772
  N      700.158     266.696    -181.615
  C      699.337     266.606    -180.540
  N      699.570     267.022    -179.278
  C      700.754     267.641    -179.188
  C      701.687     267.819    -180.184
  C      701.349     267.305    -181.468
  N      702.186     267.430    -182.564
  N      702.808     268.469    -179.716
  C      702.535     268.706    -178.436
  N      701.307     268.230    -178.076
  O      706.228     269.915    -173.869
  O      706.308     269.822    -176.443
  H      699.821     265.857    -174.719
  H      706.870     269.045    -176.296
  H      698.379     266.109    -180.703
  H      703.199     269.210    -177.761
  H      699.638     268.554    -176.895
  H      700.923     266.032    -176.653
  H      702.966     267.054    -175.795
  H      701.107     268.723    -173.971
  H      702.877     270.475    -174.280
  H      701.789     267.145    -183.458
  H      702.986     268.021    -182.497
  H      703.457     269.072    -173.362
  P      702.950     264.917    -174.242
  C      700.721     263.619    -174.758
  O      702.046     263.942    -175.147
  O      703.432     264.322    -172.971
  O      704.115     265.364    -175.241
  H      703.833     265.596    -176.148
  H      700.235     263.074    -175.571
  H      700.156     264.521    -174.527
  H      700.759     262.953    -173.873
  H      704.249     273.140    -176.536
  H      703.753     271.527    -176.989
  H      705.395     272.050    -177.280

 3  4  5  6  7  8  9  10  11  12  22  25  29  30  31  32 0
 6-311+G(2d,p)
 ****
 33  36  37 0
 6-311+G(2d,p)
 ****
 1  2  13  14  15  16  17  18  19  20  21  23  24  26 0
 3-21G
 ****
 27  28  34  35  38  39  40  41  42  43  44  45  46  47  48 0
 3-21G
 ****


