%nproc=1
%NoSave
%Mem=1900MB
#P OB98/GEN NMR

erre ene a

0 1
  C      676.592     652.511    -590.011
  O      677.635     651.614    -590.324
  H      675.638     652.026    -590.235
  H      676.676     653.407    -590.626
  H      676.605     652.783    -588.955
  P      679.121     651.946    -589.824
  C      678.930     650.836    -587.508
  O      679.060     652.052    -588.228
  C      679.091     651.063    -586.002
  O      680.455     651.501    -585.735
  C      678.151     652.131    -585.438
  O      677.865     651.780    -584.079
  C      679.021     653.375    -585.476
  O      678.525     654.398    -584.645
  C      680.380     652.779    -585.072
  N      681.500     653.650    -585.422
  C      682.287     654.101    -584.368
  O      682.050     653.825    -583.174
  N      683.328     654.920    -584.696
  C      683.624     655.378    -585.951
  O      684.552     656.135    -586.179
  C      682.733     654.893    -587.026
  C      681.731     654.069    -586.712
  O      679.785     653.107    -590.506
  O      679.932     650.590    -590.057
  H      679.207     655.099    -584.520
  H      680.868     650.780    -590.249
  H      683.913     655.255    -583.936
  H      682.926     655.245    -588.032
  H      681.060     653.696    -587.481
  H      680.415     652.600    -583.991
  H      679.067     653.780    -586.492
  H      677.231     652.249    -586.004
  H      678.961     650.103    -585.482
  H      679.713     650.149    -587.868
  H      677.949     650.385    -587.710
  P      676.467     651.102    -583.644
  C      677.459     648.830    -582.940
  O      676.581     649.522    -583.830
  O      675.269     651.720    -584.297
  O      676.409     651.273    -582.051
  H      675.478     651.328    -581.755
  H      677.446     647.784    -583.167
  H      677.135     648.980    -581.931
  H      678.454     649.207    -583.055

 6  7  8  9  10  11  12  13  14  15  16  26  31  32  33  34  35 0
 6-311+G(2d,p)
 ****
 36  37 0
 6-311+G(2d,p)
 ****
 1  2  3  4  5  17  18  19  20  21  22  23  24  25 0
 3-21G
 ****
 27  28  29  30  38  39  40  41  42  43  44  45 0
 3-21G
 ****


