%nproc=1
%NoSave
%Mem=1900MB
#P OB98/GEN NMR

erre ene a

0 1
  C      122.852     346.891     -43.410
  O      121.685     347.075     -42.621
  P      121.874     347.134     -41.027
  C      120.365     347.902     -39.060
  O      120.572     347.886     -40.467
  C      119.149     348.748     -38.706
  O      119.507     350.141     -38.711
  C      117.988     348.624     -39.678
  O      117.210     347.462     -39.429
  C      117.200     349.887     -39.359
  O      116.379     349.666     -38.195
  C      118.315     350.898     -39.042
  N      117.545     355.493     -41.028
  C      117.067     354.941     -39.854
  N      116.293     355.743     -39.088
  N      117.320     353.720     -39.469
  C      118.138     353.053     -40.313
  C      118.675     353.488     -41.505
  C      118.346     354.825     -41.946
  O      118.689     355.342     -43.005
  N      119.472     352.526     -42.075
  C      119.449     351.527     -41.215
  N      118.629     351.786     -40.144
  O      123.035     348.217     -40.840
  O      122.214     345.834     -40.380
  H      116.946     349.236     -37.524
  H      123.503     348.060     -39.997
  H      117.334     356.445     -41.267
  H      120.006     350.607     -41.326
  H      118.064     351.504     -38.164
  H      116.532     350.190     -40.168
  H      116.171     356.726     -39.267
  H      118.335     348.659     -40.717
  H      115.961     355.367     -38.206
  H      118.833     348.483     -37.688
  H      121.250     348.327     -38.569
  H      120.233     346.873     -38.710
  P      116.432     346.834     -40.690
  C      114.896     344.755     -40.954
  O      115.871     345.426     -40.176
  O      117.615     346.440     -41.691
  O      115.440     347.752     -41.318
  H      117.290     346.435     -42.613
  H      115.074     344.894     -42.022
  H      113.903     345.133     -40.699
  H      114.939     343.688     -40.730
  H      122.583     346.871     -44.445
  H      123.320     345.966     -43.145
  H      123.532     347.698     -43.234

 3  4  5  6  7  8  9  10  11  12  23  26  30  31  33  0
 6-311+G(2d,p)
 ****
 35  36  37  38 0
 6-311+G(2d,p)
 ****
 1  2  13  14  15  16  17  18  19  20  21  22  24  25  27  28  29 0
 3-21G
 ****
 32  34  39  40  41  42  43  44  45  46  47  48  49 0
 3-21G
 ****


