%nproc=1
%NoSave
%Mem=1900MB
#P OB98/GEN NMR

erre ene a

0 1
  C       35.887     696.266     142.114
  O       34.674     695.885     141.494
  H       35.720     696.360     143.189
  H       36.213     697.236     141.724
  H       36.659     695.514     141.934
  P       34.733     695.531     139.935
  C       34.161     697.995     139.229
  O       35.055     696.891     139.149
  C       34.053     698.683     137.869
  O       35.358     698.940     137.316
  C       33.366     697.846     136.810
  O       31.970     697.722     137.024
  C       33.728     698.633     135.556
  O       32.893     699.791     135.415
  C       35.184     699.050     135.872
  N       36.164     698.247     135.149
  C       36.217     698.453     133.767
  O       35.466     699.269     133.229
  N       37.084     697.696     133.018
  C       37.858     696.835     133.609
  N       38.699     696.111     132.815
  C       37.857     696.606     135.068
  C       36.992     697.339     135.772
  O       33.198     695.269     139.577
  O       35.650     694.408     139.571
  H       31.973     699.481     135.510
  H       32.605     696.004     139.832
  H       38.525     695.886     135.519
  H       36.928     697.234     136.844
  H       35.348     700.104     135.616
  H       33.607     698.042     134.645
  H       33.839     696.860     136.736
  H       33.546     699.644     138.015
  H       38.654     696.276     131.817
  H       34.479     698.701     140.001
  H       39.317     695.393     133.158
  H       33.181     697.605     139.526
  P       31.167     696.460     136.454
  C       30.674     697.217     134.043
  O       31.488     696.400     134.880
  O       29.720     696.416     136.797
  O       32.011     695.200     137.009
  H       32.937     695.181     136.721
  H       30.977     697.096     133.024
  H       30.784     698.242     134.329
  H       29.650     696.926     134.148

 6  7  8  9  10  11  12  13  14  15  16  26  30  31  32  33  35 0
 6-311+G(2d,p)
 ****
 37  38 0
 6-311+G(2d,p)
 ****
 1  2  3  4  5  17  18  19  20  21  22  23  24  25 0
 3-21G
 ****
 27  28  29  34  36  39  40  41  42  43  44  45  46 0
 3-21G
 ****


