%nproc=1
%NoSave
%Mem=1900MB
#P OB98/GEN NMR

erre ene a

0 1
  C     -315.839      75.534    1111.532
  O     -316.909      74.641    1111.755
  H     -316.205      76.386    1110.946
  H     -315.048      75.034    1110.961
  H     -315.437      75.905    1112.479
  P     -316.656      73.440    1112.787
  C     -319.086      73.414    1113.722
  O     -318.077      72.719    1113.006
  C     -320.412      73.327    1112.977
  O     -320.372      74.233    1111.836
  C     -320.737      71.925    1112.424
  O     -322.142      71.705    1112.532
  C     -320.345      72.027    1110.964
  O     -320.995      71.077    1110.124
  C     -320.744      73.474    1110.667
  N     -320.093      73.995    1109.467
  C     -320.888      74.241    1108.355
  O     -322.118      74.130    1108.340
  N     -320.225      74.638    1107.223
  C     -318.871      74.786    1107.098
  O     -318.326      75.117    1106.047
  C     -318.080      74.506    1108.299
  C     -318.719      74.127    1109.408
  O     -316.415      74.194    1114.175
  O     -315.543      72.514    1112.438
  H     -315.466      74.392    1114.291
  H     -320.505      70.221    1110.228
  H     -320.790      74.818    1106.410
  H     -317.004      74.598    1108.222
  H     -318.153      73.885    1110.320
  H     -321.833      73.553    1110.555
  H     -319.265      71.890    1110.852
  H     -320.203      71.104    1112.935
  H     -321.219      73.670    1113.629
  H     -318.805      74.471    1113.811
  H     -319.176      72.987    1114.727
  P     -322.681      70.933    1113.828
  C     -324.868      72.343    1114.136
  O     -324.273      71.094    1113.804
  O     -322.196      71.913    1114.992
  O     -322.173      69.532    1113.931
  H     -322.228      72.864    1114.733
  H     -325.933      72.261    1114.066
  H     -324.522      73.094    1113.457
  H     -324.596      72.613    1115.135

 6  7  8  9  10  11  12  13  14  15  16  27  31  32  33  34  35 0
 6-311+G(2d,p)
 ****
 36  37 0
 6-311+G(2d,p)
 ****
 1  2  3  4  5  17  18  19  20  21  22  23  24  25 0
 3-21G
 ****
 26  28  29  30  38  39  40  41  42  43  44  45 0
 3-21G
 ****


