%nproc=1
%NoSave
%Mem=1900MB
#P OB98/GEN NMR

erre ene a

0 1
  C       63.959      39.357      12.616
  O       63.372      38.099      12.885
  H       64.616      39.652      13.440
  H       64.557      39.279      11.703
  H       63.183      40.114      12.469
  P       62.478      37.989      14.214
  C       64.022      36.284      15.435
  O       63.511      37.609      15.386
  C       64.160      35.851      16.891
  O       65.013      36.776      17.606
  C       62.839      35.830      17.654
  O       62.099      34.643      17.430
  C       63.340      35.906      19.086
  O       63.838      34.619      19.495
  C       64.496      36.911      18.958
  N       62.883      40.311      22.432
  C       63.261      39.018      22.542
  N       63.698      38.187      21.573
  C       63.737      38.819      20.389
  C       63.391      40.135      20.123
  C       62.940      40.899      21.213
  N       62.526      42.210      21.100
  N       63.544      40.416      18.779
  C       63.992      39.295      18.250
  N       64.094      38.290      19.177
  O       61.654      36.631      14.009
  O       61.605      39.164      14.514
  H       64.077      34.692      20.439
  H       60.919      36.579      14.648
  H       63.200      38.592      23.540
  H       64.245      39.157      17.206
  H       65.319      36.698      19.652
  H       62.555      36.186      19.794
  H       62.236      36.721      17.438
  H       64.644      34.866      16.914
  H       65.004      36.261      14.949
  H       62.083      42.622      21.904
  H       62.425      42.607      20.177
  H       63.341      35.610      14.904
  P       60.560      34.799      16.996
  C       59.535      34.050      19.262
  O       59.739      35.113      18.339
  O       60.131      33.298      16.644
  O       60.323      35.736      15.856
  H       59.460      33.283      15.934
  H       58.976      34.409      20.101
  H       60.482      33.681      19.596
  H       58.993      33.261      18.783

 6  7  8  9  10  11  12  13  14  15  25  28  32  33  34  35 0
 6-311+G(2d,p)
 ****
 36  39  40 0
 6-311+G(2d,p)
 ****
 1  2  3  4  5  16  17  18  19  20  21  22  23  24 0
 3-21G
 ****
 26  27  29  30  31  37  38  41  42  43  44  45  46  47 0
 3-21G
 ****
 48 0
 3-21G
 ****


