%nproc=1
%NoSave
%Mem=1900MB
#P OB98/GEN NMR

erre ene a

0 1
  C      240.321    -150.128       3.774
  O      239.693    -150.915       4.776
  P      238.854    -150.145       5.912
  C      240.813    -150.246       7.619
  O      239.947    -149.423       6.838
  C      241.760    -149.387       8.450
  O      242.802    -148.845       7.617
  C      241.104    -148.185       9.118
  O      240.440    -148.537      10.323
  C      242.316    -147.318       9.411
  O      242.990    -147.802      10.586
  C      243.184    -147.555       8.167
  N      244.559    -142.842       6.742
  C      244.835    -143.561       7.848
  N      244.424    -144.807       8.159
  C      243.612    -145.295       7.204
  C      243.215    -144.659       6.036
  C      243.732    -143.374       5.808
  N      243.475    -142.649       4.667
  N      242.376    -145.473       5.305
  C      242.282    -146.581       6.004
  N      243.019    -146.527       7.158
  O      238.316    -151.338       6.835
  O      237.747    -149.283       5.404
  H      243.683    -147.150      10.807
  H      237.525    -151.048       7.322
  H      245.481    -143.076       8.576
  H      241.698    -147.448       5.719
  H      244.252    -147.608       8.408
  H      242.059    -146.271       9.595
  H      240.434    -147.660       8.423
  H      242.231    -150.033       9.203
  H      241.402    -150.880       6.949
  H      244.025    -141.825       4.496
  H      243.024    -143.130       3.891
  H      240.207    -150.888       8.268
  P      239.289    -147.538      10.835
  C      240.952    -146.485      12.530
  O      240.062    -146.278      11.450
  O      238.700    -148.297      12.113
  O      238.246    -147.240       9.814
  H      237.775    -148.025      12.272
  H      241.608    -145.615      12.617
  H      241.571    -147.374      12.370
  H      240.385    -146.590      13.462
  H      240.839    -150.768       3.091
  H      241.017    -149.457       4.232
  H      239.580    -149.567       3.245

 3  4  5  6  7  8  9  10  11  12  22  25  29  30  31  32 0
 6-311+G(2d,p)
 ****
 33  36  37 0
 6-311+G(2d,p)
 ****
 1  2  13  14  15  16  17  18  19  20  21  23  24  26 0
 3-21G
 ****
 27  28  34  35  38  39  40  41  42  43  44  45  46  47  48 0
 3-21G
 ****


