%nproc=1
%NoSave
%Mem=1900MB
#P OB98/GEN NMR

erre ene a

0 1
  C     -320.353     -91.333    -549.961
  O     -321.640     -91.905    -550.082
  P     -322.947     -90.986    -550.097
  C     -323.790     -91.083    -552.515
  O     -323.060     -90.326    -551.559
  C     -324.118     -90.249    -553.750
  O     -324.884     -89.081    -553.344
  C     -322.894     -89.741    -554.528
  O     -323.265     -89.717    -555.913
  C     -322.738     -88.317    -554.022
  O     -321.989     -87.491    -554.905
  C     -324.204     -87.921    -553.870
  N     -324.662     -82.839    -553.580
  C     -324.434     -83.661    -554.626
  N     -324.297     -85.005    -554.617
  C     -324.428     -85.486    -553.373
  C     -324.631     -84.769    -552.203
  C     -324.769     -83.377    -552.342
  N     -325.036     -82.524    -551.289
  N     -324.649     -85.618    -551.113
  C     -324.459     -86.822    -551.615
  N     -324.385     -86.796    -552.980
  O     -323.057     -90.018    -548.967
  O     -324.159     -92.033    -550.082
  H     -322.560     -87.258    -555.662
  H     -324.575     -92.042    -549.199
  H     -324.355     -83.183    -555.599
  H     -324.367     -87.732    -551.043
  H     -324.663     -87.666    -554.833
  H     -322.225     -88.328    -553.050
  H     -321.995     -90.344    -554.381
  H     -324.768     -90.844    -554.405
  H     -324.720     -91.415    -552.044
  H     -325.248     -81.566    -551.521
  H     -325.381     -82.916    -550.415
  H     -323.212     -91.970    -552.804
  P     -322.197     -90.129    -557.037
  C     -323.479     -92.059    -558.116
  O     -322.388     -91.698    -557.290
  O     -320.794     -89.690    -556.772
  O     -322.784     -89.468    -558.371
  H     -322.083     -89.419    -559.045
  H     -324.401     -92.053    -557.527
  H     -323.313     -93.071    -558.504
  H     -323.586     -91.370    -558.960
  H     -319.616     -92.108    -549.971
  H     -320.289     -90.791    -549.040
  H     -320.181     -90.666    -550.780

 3  4  5  6  7  8  9  10  11  12  22  25  29  30  31  32 0
 6-311+G(2d,p)
 ****
 33  36  37 0
 6-311+G(2d,p)
 ****
 1  2  13  14  15  16  17  18  19  20  21  23  24  26 0
 3-21G
 ****
 27  28  34  35  38  39  40  41  42  43  44  45  46  47  48 0
 3-21G
 ****


