%nproc=1
%NoSave
%Mem=1900MB
#P OB98/GEN NMR

erre ene a

0 1
  C     -898.934     223.149    -899.006
  O     -898.364     224.068    -898.076
  P     -896.764     224.212    -898.016
  C     -896.194     221.763    -897.196
  O     -896.074     222.763    -898.156
  C     -895.174     220.639    -897.496
  O     -893.854     221.186    -897.516
  C     -895.214     219.506    -896.476
  O     -896.144     218.515    -896.776
  C     -893.784     218.988    -896.546
  O     -893.604     218.159    -897.726
  C     -892.954     220.325    -896.716
  N     -892.604     221.061    -895.496
  C     -891.674     222.128    -895.556
  O     -891.144     222.490    -896.626
  N     -891.434     222.789    -894.406
  C     -892.084     222.612    -893.206
  O     -891.854     223.308    -892.216
  C     -893.144     221.602    -893.226
  C     -893.354     220.887    -894.326
  O     -896.474     224.624    -896.476
  O     -896.204     225.232    -898.966
  H     -894.314     217.505    -897.726
  H     -896.104     225.514    -896.436
  H     -890.734     223.521    -894.426
  H     -893.724     221.475    -892.296
  H     -894.124     220.106    -894.336
  H     -892.054     220.147    -897.296
  H     -893.524     218.378    -895.696
  H     -895.364     219.911    -895.466
  H     -895.414     220.229    -898.506
  H     -897.214     221.354    -897.186
  H     -896.014     222.167    -896.196
  P     -897.524     218.435    -895.906
  C     -896.384     216.913    -894.176
  O     -897.014     218.154    -894.406
  O     -898.594     217.522    -896.406
  O     -898.004     219.959    -895.806
  H     -898.694     220.142    -896.506
  H     -895.954     216.897    -893.156
  H     -895.564     216.740    -894.886
  H     -897.134     216.077    -894.246
  H     -900.000     223.172    -898.922
  H     -898.580     222.162    -898.794
  H     -898.648     223.424    -900.000

 3  4  5  6  7  8  9  10  11  12  13  23  28  29  30  31  32 0
 6-311+G(2d,p)
 ****
 33  34 0
 6-311+G(2d,p)
 ****
 1  2  14  15  16  17  18  19  20  21  22  24  25  26  27 0
 3-21G
 ****
 35  36  37  38  39  40  41  42  43  44  45 0
 3-21G
 ****


