%nproc=1
%NoSave
%Mem=1900MB
#P OB98/GEN NMR

erre ene a

0 1
  C      347.969     -56.133      60.025
  O      346.783     -56.772      60.455
  H      348.681     -56.123      60.855
  H      347.770     -55.103      59.719
  H      348.412     -56.686      59.191
  P      345.491     -56.687      59.503
  C      345.984     -59.061      58.612
  O      345.794     -57.687      58.279
  C      344.902     -59.933      57.970
  O      344.698     -59.545      56.597
  C      345.259     -61.410      57.918
  O      345.283     -62.046      59.179
  C      344.331     -61.933      56.829
  O      343.038     -62.290      57.309
  C      344.219     -60.706      55.891
  N      344.932     -60.913      54.635
  C      344.233     -60.578      53.479
  O      343.076     -60.156      53.483
  N      344.896     -60.787      52.300
  C      346.140     -61.331      52.170
  O      346.664     -61.534      51.080
  C      346.819     -61.689      53.427
  C      346.192     -61.466      54.586
  O      345.089     -55.309      59.073
  O      344.360     -57.458      60.330
  H      342.774     -61.606      57.954
  H      343.461     -57.250      59.980
  H      344.410     -60.541      51.453
  H      347.806     -62.127      53.359
  H      346.674     -61.725      55.527
  H      343.167     -60.508      55.649
  H      344.745     -62.817      56.341
  H      346.275     -61.500      57.521
  H      343.963     -59.772      58.513
  H      345.922     -59.152      59.701
  H      346.978     -59.384      58.286
  P      346.375     -63.133      59.596
  C      347.179     -61.876      61.720
  O      347.523     -62.392      60.443
  O      346.780     -64.115      58.545
  O      345.587     -63.952      60.740
  H      345.873     -64.885      60.684
  H      348.038     -61.414      62.161
  H      346.841     -62.674      62.348
  H      346.399     -61.151      61.613

 6  7  8  9  10  11  12  13  14  15  16  26  31  32  33  34  35 0
 6-311+G(2d,p)
 ****
 36  37 0
 6-311+G(2d,p)
 ****
 1  2  3  4  5  17  18  19  20  21  22  23  24  25 0
 3-21G
 ****
 27  28  29  30  38  39  40  41  42  43  44  45 0
 3-21G
 ****


