%nproc=1
%NoSave
%Mem=1900MB
#P OB98/GEN NMR

erre ene a

0 1
  C       30.228     -21.904     -36.289
  O       31.055     -20.971     -36.960
  P       32.555     -20.782     -36.414
  C       31.534     -18.778     -35.113
  O       32.447     -19.870     -35.098
  C       32.206     -17.483     -34.658
  O       32.638     -17.637     -33.283
  C       33.423     -17.082     -35.496
  O       33.429     -15.658     -35.609
  C       34.600     -17.514     -34.639
  O       35.779     -16.768     -34.944
  C       34.040     -17.288     -33.225
  N       34.744     -18.080     -32.221
  C       35.534     -17.378     -31.303
  O       35.673     -16.160     -31.416
  N       36.184     -18.081     -30.316
  C       36.137     -19.378     -30.316
  N       36.798     -20.025     -29.316
  C       35.418     -20.161     -31.340
  C       34.732     -19.456     -32.238
  O       33.209     -19.798     -37.493
  O       33.329     -22.051     -36.263
  H       36.495     -17.073     -34.345
  H       34.163     -19.979     -37.599
  H       35.442     -21.241     -31.312
  H       34.156     -19.947     -33.012
  H       34.109     -16.228     -32.944
  H       34.811     -18.577     -34.803
  H       33.420     -17.532     -36.493
  H       31.455     -16.682     -34.673
  H       37.296     -19.466     -28.635
  H       30.709     -18.995     -34.426
  H       36.819     -21.035     -29.232
  H       31.116     -18.666     -36.120
  P       33.886     -15.023     -37.008
  C       36.252     -14.428     -36.207
  O       35.473     -15.240     -37.066
  O       33.789     -13.452     -36.693
  O       33.108     -15.375     -38.232
  H       33.984     -12.942     -37.500
  H       37.289     -14.771     -36.245
  H       35.895     -14.504     -35.177
  H       36.215     -13.388     -36.543
  H       29.265     -21.927     -36.755
  H       30.122     -21.614     -35.264
  H       30.672     -22.876     -36.340

 3  4  5  6  7  8  9  10  11  12  13  21  23  27  28  29  30  32 0
 6-311+G(2d,p)
 ****
 34  35 0
 6-311+G(2d,p)
 ****
 1  2  14  15  16  17  18  19  20  22  24  25  26 0
 3-21G
 ****
 31  33  36  37  38  39  40  41  42  43  44  45  46 0
 3-21G
 ****


