%nproc=1
%NoSave
%Mem=1900MB
#P OB98/GEN NMR

erre ene a

0 1
  C      285.046     -42.089     891.696
  O      285.570     -43.139     892.492
  H      285.796     -41.302     891.626
  H      284.147     -41.678     892.154
  H      284.813     -42.451     890.688
  P      284.667     -44.460     892.632
  C      286.024     -45.864     890.909
  O      284.794     -45.241     891.229
  C      285.784     -47.018     889.927
  O      284.897     -47.977     890.556
  C      285.123     -46.561     888.620
  O      285.652     -47.319     887.548
  C      283.657     -46.916     888.827
  O      282.927     -47.077     887.622
  C      283.783     -48.199     889.655
  N      282.558     -48.495     890.407
  C      281.473     -48.989     889.695
  O      281.496     -49.260     888.495
  N      280.320     -49.173     890.406
  C      280.146     -48.898     891.733
  O      279.092     -49.070     892.320
  C      281.328     -48.386     892.439
  C      282.458     -48.198     891.749
  O      283.171     -43.889     892.612
  O      284.938     -45.296     893.840
  H      282.866     -43.688     893.502
  H      282.013     -47.354     887.867
  H      279.531     -49.535     889.904
  H      281.223     -48.133     893.485
  H      283.348     -47.795     892.230
  H      284.039     -49.040     889.014
  H      283.159     -46.129     889.408
  H      285.253     -45.494     888.418
  H      286.726     -47.518     889.744
  H      286.478     -46.256     891.834
  H      286.696     -45.121     890.465
  P      285.818     -46.598     886.111
  C      288.369     -47.176     885.988
  O      287.366     -46.165     886.029
  O      285.045     -45.229     886.392
  O      285.314     -47.422     884.980
  H      285.158     -44.876     887.290
  H      289.335     -46.718     885.935
  H      288.219     -47.793     885.127
  H      288.307     -47.776     886.872

 6  7  8  9  10  11  12  13  14  15  16  27  31  32  33  34  35 0
 6-311+G(2d,p)
 ****
 36  37 0
 6-311+G(2d,p)
 ****
 1  2  3  4  5  17  18  19  20  21  22  23  24  25 0
 3-21G
 ****
 26  28  29  30  38  39  40  41  42  43  44  45 0
 3-21G
 ****


