%nproc=1
%NoSave
%Mem=1900MB
#P OB98/GEN NMR

erre ene a

0 1
  C     -100.837     -71.583     -62.347
  O     -101.548     -72.010     -63.491
  H     -101.269     -70.643     -61.997
  H      -99.789     -71.414     -62.604
  H     -100.911     -72.326     -61.551
  P     -101.130     -73.428     -64.117
  C     -100.535     -72.400     -66.422
  O     -101.358     -73.307     -65.704
  C     -101.372     -71.549     -67.375
  O     -102.260     -70.698     -66.590
  C     -100.549     -70.631     -68.291
  O     -101.223     -70.544     -69.553
  C     -100.657     -69.280     -67.603
  O     -100.402     -68.192     -68.488
  C     -102.092     -69.356     -67.085
  N     -105.164     -65.594     -65.775
  C     -105.197     -66.440     -66.866
  N     -106.203     -66.257     -67.748
  N     -104.319     -67.384     -67.076
  C     -103.387     -67.475     -66.097
  C     -103.242     -66.699     -64.973
  C     -104.207     -65.639     -64.766
  O     -104.218     -64.846     -63.829
  N     -102.150     -67.091     -64.239
  C     -101.639     -68.102     -64.918
  N     -102.354     -68.372     -66.053
  O     -102.318     -74.386     -63.636
  O      -99.793     -73.942     -63.701
  H     -100.485     -67.362     -67.975
  H     -102.076     -74.832     -62.803
  H     -105.858     -64.875     -65.667
  H     -100.759     -68.664     -64.638
  H     -102.831     -69.188     -67.878
  H      -99.943     -69.221     -66.772
  H     -106.941     -65.582     -67.627
  H      -99.515     -70.955     -68.444
  H     -106.269     -66.896     -68.532
  H     -102.014     -72.214     -67.964
  H      -99.800     -72.971     -67.002
  H     -100.005     -71.756     -65.713
  P     -100.369     -70.807     -70.882
  C     -101.516     -69.259     -72.629
  O     -101.330     -70.580     -72.144
  O     -100.172     -72.396     -70.870
  O      -99.061     -70.089     -70.924
  H      -99.350     -72.632     -71.338
  H     -102.180     -69.277     -73.468
  H     -100.573     -68.853     -72.930
  H     -101.936     -68.651     -71.855

 6  7  8  9  10  11  12  13  14  15  26  29  33  34 0
 6-311+G(2d,p)
 ****
 36  38  39  40  41 0
 6-311+G(2d,p)
 ****
 1  2  3  4  5  16  17  18  19  20  21  22  23  24  25 0
 3-21G
 ****
 27  28  30  31  32  35  37  42  43  44  45  46  47 0
 3-21G
 ****
 48  49 0
 3-21G
 ****


