%nproc=1
%NoSave
%Mem=1900MB
#P OB98/GEN NMR

erre ene a

0 1
  C     -162.932     626.105    -899.050
  O     -163.335     625.088    -898.150
  H     -162.015     625.796    -899.560
  H     -162.731     627.036    -898.500
  H     -163.708     626.280    -899.800
  P     -164.746     625.277    -897.430
  C     -166.254     623.606    -898.790
  O     -165.540     623.887    -897.580
  C     -166.214     622.109    -899.080
  O     -164.865     621.658    -899.350
  C     -166.665     621.236    -897.910
  O     -168.051     621.317    -897.670
  C     -166.188     619.873    -898.380
  O     -167.093     619.312    -899.350
  C     -164.832     620.227    -899.040
  N     -163.694     619.883    -898.190
  C     -163.294     618.536    -898.240
  O     -163.902     617.734    -898.970
  N     -162.263     618.137    -897.450
  C     -161.643     618.999    -896.700
  N     -160.616     618.524    -895.910
  C     -162.016     620.430    -896.650
  C     -163.024     620.806    -897.420
  O     -165.528     626.253    -898.420
  O     -164.690     625.749    -896.020
  H     -167.950     619.181    -898.890
  H     -165.537     625.934    -899.340
  H     -161.458     621.110    -896.010
  H     -163.375     621.816    -897.430
  H     -164.727     619.715    -900.000
  H     -166.116     619.157    -897.570
  H     -166.094     621.505    -897.010
  H     -166.822     621.910    -899.960
  H     -160.415     617.526    -895.980
  H     -165.835     624.173    -899.630
  H     -160.099     619.095    -895.270
  H     -167.286     623.938    -898.660
  P     -168.649     621.088    -896.200
  C     -168.234     623.479    -895.350
  O     -169.218     622.520    -895.690
  O     -167.711     620.424    -895.250
  O     -170.000     620.260    -896.480
  H     -170.653     620.728    -897.050
  H     -168.711     624.381    -895.029
  H     -167.624     623.683    -896.205
  H     -167.623     623.098    -894.559

 6  7  8  9  10  11  12  13  14  15  16  26  30  31  32  33  35 0
 6-311+G(2d,p)
 ****
 37  38 0
 6-311+G(2d,p)
 ****
 1  2  3  4  5  17  18  19  20  21  22  23  24  25 0
 3-21G
 ****
 27  28  29  34  36  39  40  41  42  43  44  45  46 0
 3-21G
 ****


