%nproc=1
%NoSave
%Mem=1900MB
#P OB98/GEN NMR

erre ene a

0 1
  C     -199.946    -284.367     194.347
  O     -200.007    -283.669     193.097
  P     -201.192    -282.605     192.898
  C     -202.107    -283.799     190.781
  O     -201.619    -282.594     191.349
  C     -202.773    -283.548     189.421
  O     -203.908    -282.650     189.557
  C     -201.831    -282.915     188.387
  O     -202.233    -283.355     187.082
  C     -202.143    -281.437     188.518
  O     -201.709    -280.702     187.374
  C     -203.656    -281.492     188.732
  N     -204.007    -276.479     188.313
  C     -203.373    -277.398     187.499
  N     -202.774    -276.912     186.391
  N     -203.334    -278.684     187.749
  C     -204.008    -279.029     188.873
  C     -204.666    -278.212     189.762
  C     -204.682    -276.791     189.485
  O     -205.216    -275.927     190.180
  N     -205.205    -278.933     190.798
  C     -204.866    -280.180     190.537
  N     -204.170    -280.292     189.365
  O     -200.447    -281.197     193.089
  O     -202.314    -282.759     193.874
  H     -201.926    -279.758     187.536
  H     -200.708    -280.802     193.936
  H     -203.998    -275.500     188.077
  H     -205.096    -281.032     191.159
  H     -204.204    -281.618     187.786
  H     -201.639    -281.027     189.399
  H     -202.813    -275.944     186.112
  H     -200.769    -283.138     188.531
  H     -202.339    -277.570     185.755
  H     -203.151    -284.501     189.033
  H     -202.828    -284.271     191.454
  H     -201.278    -284.508     190.691
  P     -201.934    -284.885     186.709
  C     -200.456    -284.171     184.691
  O     -201.582    -284.899     185.143
  O     -203.376    -285.577     186.774
  O     -200.942    -285.560     187.596
  H     -203.286    -286.531     186.954
  H     -199.643    -284.870     184.489
  H     -200.128    -283.429     185.428
  H     -200.722    -283.654     183.765
  H     -199.113    -285.039     194.340
  H     -200.850    -284.921     194.491
  H     -199.829    -283.662     195.144

 3  4  5  6  7  8  9  10  11  12  23  26  30  31 0
 6-311+G(2d,p)
 ****
 33  35  36  37  38 0
 6-311+G(2d,p)
 ****
 1  2  13  14  15  16  17  18  19  20  21  22  24  25 0
 3-21G
 ****
 27  28  29  32  34  39  40  41  42  43  44  45  46  47  48  49 0
 3-21G
 ****


