%nproc=1
%NoSave
%Mem=1900MB
#P OB98/GEN NMR

erre ene a

0 1
  C      -90.427     -92.672     -87.027
  O      -91.815     -92.434     -87.156
  H      -89.956     -91.774     -86.621
  H      -89.984     -92.890     -88.002
  H      -90.245     -93.502     -86.339
  P      -92.734     -93.591     -87.772
  C      -92.271     -92.769     -90.177
  O      -92.187     -93.851     -89.257
  C      -92.931     -93.226     -91.474
  O      -92.187     -94.311     -92.062
  C      -94.364     -93.730     -91.307
  O      -95.273     -92.643     -91.254
  C      -94.517     -94.557     -92.572
  O      -94.729     -93.683     -93.699
  C      -93.134     -95.225     -92.681
  N      -92.553    -100.218     -93.380
  C      -92.754     -99.212     -94.305
  N      -92.842     -99.594     -95.597
  N      -92.869     -97.948     -93.992
  C      -92.831     -97.721     -92.659
  C      -92.656     -98.635     -91.645
  C      -92.462    -100.023     -92.010
  O      -92.257    -100.943     -91.222
  N      -92.766     -98.046     -90.411
  C      -92.955     -96.769     -90.679
  N      -93.012     -96.519     -92.032
  O      -94.214     -93.364     -87.702
  O      -92.290     -94.910     -86.983
  H      -94.721     -94.240     -94.499
  H      -92.848     -95.055     -86.197
  H      -92.479    -101.175     -93.680
  H      -93.054     -95.983     -89.939
  H      -92.825     -95.364     -93.723
  H      -95.364     -95.242     -92.531
  H      -92.911    -100.559     -95.885
  H      -94.459     -94.389     -90.438
  H      -93.047     -98.878     -96.283
  H      -92.891     -92.389     -92.184
  H      -91.252     -92.420     -90.369
  H      -92.846     -91.944     -89.744
  P      -96.521     -92.640     -90.241
  C      -98.117     -92.505     -92.272
  O      -97.758     -93.203     -91.091
  O      -96.772     -91.338     -89.562
  O      -96.224     -93.852     -89.245
  H      -95.638     -93.596     -88.490
  H      -98.952     -92.990     -92.733
  H      -97.289     -92.501     -92.950
  H      -98.381     -91.498     -92.025

 6  7  8  9  10  11  12  13  14  15  26  29  33  34 0
 6-311+G(2d,p)
 ****
 36  38  39  40  41 0
 6-311+G(2d,p)
 ****
 1  2  3  4  5  16  17  18  19  20  21  22  23  24  25 0
 3-21G
 ****
 27  28  30  31  32  35  37  42  43  44  45  46  47 0
 3-21G
 ****
 48  49 0
 3-21G
 ****


