%nproc=1
%NoSave
%Mem=1900MB
#P OB98/GEN NMR

erre ene a

0 1
  C      250.524      35.469     342.075
  O      249.748      34.799     343.055
  P      249.854      33.196     343.100
  C      247.276      32.950     342.731
  O      248.588      32.643     342.284
  C      246.249      32.171     341.901
  O      246.157      32.732     340.572
  C      246.584      30.700     341.716
  O      246.190      29.953     342.851
  C      245.799      30.363     340.455
  O      244.413      30.119     340.762
  C      245.965      31.645     339.624
  N      248.088      29.044     335.843
  C      247.050      28.695     336.691
  N      246.469      27.495     336.467
  N      246.623      29.454     337.668
  C      247.305      30.615     337.780
  C      248.358      31.071     337.012
  C      248.787      30.246     335.907
  O      249.630      30.551     335.071
  N      248.808      32.289     337.445
  C      248.011      32.589     338.449
  N      247.064      31.613     338.681
  O      249.518      32.853     344.629
  O      251.168      32.632     342.661
  H      243.885      30.188     339.945
  H      250.338      32.707     345.133
  H      248.363      28.428     335.099
  H      248.058      33.501     339.025
  H      245.057      31.883     339.044
  H      246.174      29.463     339.959
  H      246.759      26.851     335.750
  H      247.659      30.571     341.524
  H      245.713      27.223     337.081
  H      245.272      32.286     342.381
  H      247.096      34.023     342.612
  H      247.188      32.691     343.796
  P      246.806      28.479     343.029
  C      244.458      27.384     342.845
  O      245.781      27.456     342.348
  O      246.650      28.198     344.593
  O      248.231      28.350     342.587
  H      247.415      27.682     344.909
  H      243.785      27.098     342.028
  H      244.126      28.341     343.256
  H      244.410      26.621     343.628
  H      250.363      36.524     342.152
  H      250.234      35.135     341.101
  H      251.560      35.254     342.232

 3  4  5  6  7  8  9  10  11  12  23  26  30  31 0
 6-311+G(2d,p)
 ****
 33  35  36  37  38 0
 6-311+G(2d,p)
 ****
 1  2  13  14  15  16  17  18  19  20  21  22  24  25 0
 3-21G
 ****
 27  28  29  32  34  39  40  41  42  43  44  45  46  47  48  49 0
 3-21G
 ****


