%nproc=1
%NoSave
%Mem=1900MB
#P OB98/GEN NMR

erre ene a

0 1
  C        7.247     157.348      44.042
  O        7.763     156.567      42.983
  H        6.672     156.720      44.727
  H        8.079     157.795      44.590
  H        6.612     158.146      43.648
  P        6.698     155.787      42.072
  C        5.235     153.664      42.351
  O        6.042     154.642      42.993
  C        5.612     152.271      42.852
  O        6.871     151.890      42.238
  C        5.771     152.158      44.378
  O        4.882     151.164      44.897
  C        7.200     151.678      44.576
  O        7.327     150.701      45.607
  C        7.574     151.108      43.211
  N       12.055     149.099      44.573
  C       10.798     148.610      44.649
  N        9.657     149.149      44.172
  C        9.911     150.307      43.535
  C       11.139     150.918      43.357
  C       12.248     150.272      43.927
  N       13.522     150.797      43.898
  N       11.000     152.104      42.657
  C        9.703     152.227      42.459
  N        9.005     151.175      42.988
  O        7.620     154.965      41.052
  O        5.720     156.657      41.355
  H        7.025     151.124      46.433
  H        7.290     155.088      40.142
  H       10.691     147.663      45.170
  H        9.218     153.069      41.982
  H        7.257     150.063      43.100
  H        7.832     152.537      44.835
  H        5.601     153.112      44.892
  H        4.853     151.562      42.496
  H        5.396     153.707      41.269
  H       14.236     150.325      44.433
  H       13.655     151.722      43.516
  H        4.182     153.880      42.557
  P        3.364     151.624      45.171
  C        2.050     152.636      47.179
  O        3.303     152.196      46.668
  O        2.583     150.232      45.276
  O        2.799     152.507      44.111
  H        1.647     150.353      45.024
  H        2.177     152.986      48.182
  H        1.356     151.822      47.170
  H        1.675     153.431      46.569

 6  7  8  9  10  11  12  13  14  15  25  28  32  33  34  35 0
 6-311+G(2d,p)
 ****
 36  39  40 0
 6-311+G(2d,p)
 ****
 1  2  3  4  5  16  17  18  19  20  21  22  23  24 0
 3-21G
 ****
 26  27  29  30  31  37  38  41  42  43  44  45  46  47  48 0
 3-21G
 ****


