%nproc=1
%NoSave
%Mem=1900MB
#P OB98/GEN NMR

erre ene a

0 1
  C      582.742     360.390    -246.938
  O      582.670     361.673    -246.325
  P      583.828     362.197    -245.348
  C      582.641     361.266    -243.264
  O      583.791     361.198    -244.093
  C      582.886     360.522    -241.949
  O      583.163     359.135    -242.257
  C      584.096     360.999    -241.138
  O      583.835     362.109    -240.295
  C      584.351     359.764    -240.277
  O      583.411     359.728    -239.183
  C      584.073     358.621    -241.257
  N      588.592     356.322    -240.528
  C      587.590     356.637    -239.676
  N      586.424     357.272    -239.942
  C      586.325     357.538    -241.262
  C      587.256     357.276    -242.243
  C      588.448     356.630    -241.833
  N      589.459     356.292    -242.709
  N      586.814     357.723    -243.477
  C      585.626     358.231    -243.228
  N      585.282     358.139    -241.905
  O      583.757     363.643    -245.021
  O      585.185     361.794    -246.094
  H      583.492     358.847    -238.775
  H      585.932     362.289    -245.715
  H      587.740     356.361    -238.637
  H      584.982     358.677    -243.970
  H      583.584     357.765    -240.778
  H      585.360     359.761    -239.828
  H      584.964     361.175    -241.778
  H      581.969     360.563    -241.346
  H      581.804     360.791    -243.793
  H      590.203     355.721    -242.345
  H      589.278     356.377    -243.700
  H      582.381     362.314    -243.078
  P      585.027     363.178    -240.101
  C      585.859     362.121    -237.857
  O      586.131     362.441    -239.201
  O      584.586     364.510    -239.608
  O      585.702     363.219    -241.551
  H      586.148     362.402    -241.828
  H      586.657     361.481    -237.471
  H      584.915     361.579    -237.767
  H      585.821     363.038    -237.256
  H      581.876     360.236    -247.547
  H      582.784     359.635    -246.181
  H      583.620     360.334    -247.547

 3  4  5  6  7  8  9  10  11  12  22  25  29  30  31  32 0
 6-311+G(2d,p)
 ****
 33  36  37 0
 6-311+G(2d,p)
 ****
 1  2  13  14  15  16  17  18  19  20  21  23  24  26 0
 3-21G
 ****
 27  28  34  35  38  39  40  41  42  43  44  45  46  47  48 0
 3-21G
 ****


