%nproc=1
%NoSave
%Mem=1900MB
#P OB98/GEN NMR

erre ene a

0 1
  C      -84.672     183.590     208.111
  O      -84.451     182.240     208.459
  H      -83.964     183.870     207.327
  H      -84.501     184.233     208.978
  H      -85.687     183.735     207.734
  P      -85.474     181.522     209.461
  C      -87.863     180.561     209.271
  O      -86.719     181.032     208.577
  C      -88.180     179.114     208.878
  O      -88.422     179.064     207.438
  C      -87.044     178.113     209.178
  O      -87.660     176.846     209.442
  C      -86.310     178.107     207.849
  O      -85.372     177.066     207.752
  C      -87.515     178.078     206.898
  N      -87.217     178.365     205.500
  C      -87.349     177.327     204.583
  O      -87.704     176.183     204.870
  N      -87.049     177.639     203.283
  C      -86.656     178.860     202.820
  O      -86.433     179.085     201.638
  C      -86.527     179.915     203.836
  C      -86.814     179.626     205.108
  O      -85.835     182.295     210.685
  O      -84.739     180.145     209.828
  H      -84.333     180.218     210.712
  H      -84.644     177.232     208.390
  H      -87.144     176.898     202.606
  H      -86.207     180.893     203.505
  H      -86.738     180.386     205.878
  H      -88.020     177.109     206.965
  H      -85.741     179.033     207.731
  H      -86.429     178.407     210.033
  H      -89.113     178.809     209.367
  H      -88.710     181.206     209.011
  H      -87.684     180.628     210.349
  P      -87.988     176.313     210.920
  C      -89.751     177.275     212.558
  O      -89.503     176.717     211.270
  O      -87.000     176.744     211.954
  O      -88.036     174.719     210.795
  H      -87.817     174.316     211.657
  H      -90.793     177.496     212.656
  H      -89.183     178.175     212.672
  H      -89.463     176.573     213.312

 6  7  8  9  10  11  12  13  14  15  16  27  31  32  33  34  35 0
 6-311+G(2d,p)
 ****
 36  37 0
 6-311+G(2d,p)
 ****
 1  2  3  4  5  17  18  19  20  21  22  23  24  25 0
 3-21G
 ****
 26  28  29  30  38  39  40  41  42  43  44  45 0
 3-21G
 ****


