%nproc=1
%NoSave
%Mem=1900MB
#P OB98/GEN NMR

erre ene a

0 1
  C     -159.269     574.420     251.275
  O     -158.027     574.875     251.770
  H     -159.411     574.817     250.268
  H     -160.084     574.782     251.911
  H     -159.295     573.328     251.227
  P     -157.490     574.288     253.160
  C     -156.458     576.417     254.197
  O     -156.212     575.164     253.569
  C     -155.184     577.273     254.217
  O     -154.114     576.498     254.840
  C     -154.680     577.692     252.824
  O     -154.015     578.953     252.978
  C     -153.692     576.577     252.526
  O     -152.879     576.858     251.415
  C     -153.021     576.471     253.900
  N     -152.195     575.286     254.102
  C     -151.025     575.175     253.355
  O     -150.633     576.011     252.541
  N     -150.287     574.042     253.570
  C     -150.587     573.042     254.445
  O     -149.871     572.063     254.619
  C     -151.838     573.209     255.201
  C     -152.569     574.306     255.001
  O     -157.282     572.811     253.207
  O     -158.596     574.759     254.221
  H     -159.186     574.010     254.436
  H     -152.291     577.614     251.629
  H     -149.436     573.947     253.041
  H     -152.112     572.428     255.895
  H     -153.492     574.463     255.550
  H     -152.414     577.363     254.092
  H     -154.227     575.658     252.281
  H     -155.484     577.794     252.088
  H     -155.355     578.147     254.857
  H     -156.791     576.224     255.221
  H     -157.252     576.938     253.654
  P     -154.153     580.163     251.930
  C     -151.972     581.556     251.870
  O     -153.257     581.386     252.458
  O     -155.565     580.540     251.623
  O     -153.389     579.666     250.614
  H     -153.762     580.117     249.830
  H     -151.487     582.401     252.311
  H     -152.080     581.716     250.818
  H     -151.383     580.679     252.039

 6  7  8  9  10  11  12  13  14  15  16  27  31  32  33  34  35 0
 6-311+G(2d,p)
 ****
 36  37 0
 6-311+G(2d,p)
 ****
 1  2  3  4  5  17  18  19  20  21  22  23  24  25 0
 3-21G
 ****
 26  28  29  30  38  39  40  41  42  43  44  45 0
 3-21G
 ****


