%nproc=1
%NoSave
%Mem=1900MB
#P OB98/GEN NMR

erre ene a

0 1
  C      189.115    -279.468     234.271
  O      188.130    -280.026     235.154
  P      186.582    -279.617     235.108
  C      185.700    -281.628     233.752
  O      185.686    -280.945     235.001
  C      184.768    -282.847     233.766
  O      185.388    -283.952     234.451
  C      183.438    -282.627     234.473
  O      182.551    -281.866     233.668
  C      182.996    -284.066     234.722
  O      182.376    -284.631     233.556
  C      184.342    -284.758     235.022
  N      184.550    -284.981     236.450
  C      183.934    -286.110     236.998
  O      183.219    -286.834     236.310
  N      184.144    -286.385     238.333
  C      184.829    -285.560     239.064
  N      185.005    -285.880     240.373
  C      185.415    -284.309     238.538
  C      185.240    -284.090     237.231
  O      186.259    -278.580     234.080
  O      186.252    -279.065     236.576
  H      182.152    -285.555     233.784
  H      185.557    -278.382     236.513
  H      185.960    -283.640     239.184
  H      185.646    -283.200     236.765
  H      184.393    -285.729     234.505
  H      182.274    -284.144     235.541
  H      183.608    -282.122     235.432
  H      184.604    -283.152     232.721
  H      184.595    -286.747     240.698
  H      186.726    -281.960     233.554
  H      185.525    -285.312     241.023
  H      185.399    -280.931     232.963
  P      181.870    -280.543     234.260
  C      182.435    -279.240     232.118
  O      181.415    -279.636     233.028
  O      182.658    -279.834     235.316
  O      180.472    -281.067     234.845
  H      180.231    -280.523     235.613
  H      181.973    -279.000     231.158
  H      183.160    -280.046     231.973
  H      182.937    -278.358     232.503
  H      190.072    -279.892     234.491
  H      189.156    -278.407     234.407
  H      188.851    -279.688     233.258

 3  4  5  6  7  8  9  10  11  12  13  23  27  28  29  30  32 0
 6-311+G(2d,p)
 ****
 34  35 0
 6-311+G(2d,p)
 ****
 1  2  14  15  16  17  18  19  20  21  22  24  25  26 0
 3-21G
 ****
 31  33  36  37  38  39  40  41  42  43  44  45  46 0
 3-21G
 ****


