%nproc=1
%NoSave
%Mem=1900MB
#P OB98/GEN NMR

erre ene a

0 1
  C      114.890     257.342       2.017
  O      116.105     257.265       2.734
  H      114.139     256.734       2.528
  H      115.037     256.943       1.010
  H      114.533     258.374       1.960
  P      117.222     258.368       2.407
  C      118.513     256.560       1.064
  O      117.980     257.876       1.078
  C      119.673     256.467       0.073
  O      120.718     257.398       0.490
  C      120.307     255.067      -0.022
  O      120.694     254.827      -1.381
  C      121.566     255.212       0.812
  O      122.562     254.259       0.459
  C      121.951     256.655       0.499
  N      126.691     258.212       1.032
  C      125.963     257.927      -0.106
  N      126.609     258.009      -1.287
  N      124.702     257.584      -0.087
  C      124.169     257.557       1.158
  C      124.782     257.812       2.359
  C      126.184     258.174       2.330
  O      126.889     258.418       3.304
  N      123.914     257.617       3.406
  C      122.787     257.225       2.836
  N      122.893     257.172       1.474
  O      118.300     258.127       3.567
  O      116.738     259.779       2.381
  H      122.162     253.366       0.506
  H      118.130     258.737       4.309
  H      127.665     258.455       0.965
  H      121.883     256.952       3.361
  H      122.421     256.759      -0.488
  H      121.328     255.089       1.876
  H      127.571     258.297      -1.385
  H      119.655     254.260       0.324
  H      126.078     257.843      -2.133
  H      119.323     256.800      -0.911
  H      117.729     255.858       0.763
  H      118.850     256.298       2.072
  P      119.564     254.359      -2.416
  C      120.522     251.944      -2.578
  O      119.396     252.768      -2.306
  O      120.274     254.555      -3.839
  O      118.297     255.143      -2.324
  H      119.612     254.830      -4.501
  H      120.248     250.916      -2.462
  H      121.311     252.182      -1.896
  H      120.854     252.114      -3.581

 6  7  8  9  10  11  12  13  14  15  26  29  33  34 0
 6-311+G(2d,p)
 ****
 36  38  39  40  41 0
 6-311+G(2d,p)
 ****
 1  2  3  4  5  16  17  18  19  20  21  22  23  24  25 0
 3-21G
 ****
 27  28  30  31  32  35  37  42  43  44  45  46  47 0
 3-21G
 ****
 48  49 0
 3-21G
 ****


