%nproc=1
%NoSave
%Mem=1900MB
#P OB98/GEN NMR

erre ene a

0 1
  C     -434.953    -163.335     -41.790
  O     -434.239    -162.220     -42.291
  P     -433.647    -161.175     -41.230
  C     -434.374    -158.959     -42.397
  O     -433.311    -159.827     -42.027
  C     -433.810    -157.718     -43.089
  O     -432.865    -157.046     -42.228
  C     -433.047    -158.026     -44.371
  O     -433.931    -158.263     -45.455
  C     -432.203    -156.771     -44.536
  O     -432.955    -155.725     -45.171
  C     -431.885    -156.405     -43.071
  N     -430.525    -156.760     -42.688
  C     -429.508    -156.140     -43.409
  O     -429.726    -155.355     -44.333
  N     -428.231    -156.482     -43.060
  C     -427.876    -157.405     -42.120
  O     -426.711    -157.710     -41.890
  C     -428.992    -158.051     -41.409
  C     -430.243    -157.711     -41.726
  O     -432.208    -161.772     -40.866
  O     -434.490    -160.980     -40.015
  H     -432.304    -155.079     -45.507
  H     -432.005    -161.601     -39.926
  H     -427.480    -156.023     -43.552
  H     -428.747    -158.789     -40.656
  H     -431.079    -158.183     -41.224
  H     -432.016    -155.327     -42.918
  H     -431.319    -156.950     -45.155
  H     -432.384    -158.888     -44.212
  H     -434.638    -157.026     -43.291
  H     -434.927    -158.664     -41.502
  H     -435.057    -159.494     -43.063
  P     -433.649    -159.565     -46.351
  C     -433.217    -157.900     -48.318
  O     -433.847    -159.078     -47.865
  O     -434.948    -160.442     -46.020
  O     -432.352    -160.227     -46.030
  H     -435.730    -159.889     -45.853
  H     -432.234    -157.768     -47.858
  H     -433.847    -157.039     -48.082
  H     -433.093    -157.961     -49.403
  H     -435.286    -163.941     -42.606
  H     -435.799    -162.995     -41.230
  H     -434.314    -163.912     -41.155

 3  4  5  6  7  8  9  10  11  12  13  23  28  29  30  31  32 0
 6-311+G(2d,p)
 ****
 33  34 0
 6-311+G(2d,p)
 ****
 1  2  14  15  16  17  18  19  20  21  22  24  25  26 0
 3-21G
 ****
 27  35  36  37  38  39  40  41  42  43  44  45 0
 3-21G
 ****


