%nproc=1
%NoSave
%Mem=1900MB
#P OB98/GEN NMR

erre ene a

0 1
  C       60.072    -271.717     263.751
  O       58.979    -270.978     264.243
  H       60.051    -271.758     262.656
  H       61.002    -271.232     264.065
  H       60.051    -272.735     264.156
  P       57.518    -271.475     263.793
  C       56.454    -271.343     266.154
  O       56.476    -270.828     264.827
  C       55.436    -270.579     266.996
  O       55.929    -269.258     267.308
  C       54.090    -270.354     266.321
  O       53.268    -271.520     266.368
  C       53.522    -269.235     267.180
  O       52.968    -269.782     268.390
  C       54.772    -268.401     267.502
  N       53.139    -263.604     266.624
  C       52.777    -264.523     267.550
  N       53.241    -265.779     267.716
  C       54.203    -266.055     266.817
  C       54.682    -265.218     265.820
  C       54.103    -263.937     265.726
  N       54.472    -263.012     264.780
  N       55.673    -265.841     265.089
  C       55.797    -267.032     265.634
  N       54.925    -267.211     266.681
  O       57.518    -273.030     264.185
  O       57.191    -271.279     262.346
  H       52.165    -270.279     268.134
  H       57.001    -273.530     263.521
  H       52.005    -264.216     268.245
  H       56.508    -267.789     265.314
  H       54.788    -268.087     268.558
  H       52.728    -268.666     266.685
  H       54.210    -269.999     265.291
  H       55.309    -271.120     267.948
  H       57.450    -271.224     266.602
  H       54.171    -262.060     264.892
  H       55.196    -263.271     264.119
  H       56.200    -272.406     266.124
  P       51.942    -271.521     265.460
  C       52.637    -273.557     263.999
  O       51.755    -273.053     264.991
  O       52.416    -270.779     264.118
  O       50.754    -270.865     266.069
  H       51.644    -270.380     263.672
  H       52.394    -274.578     263.791
  H       53.645    -273.495     264.353
  H       52.537    -272.978     263.105

 6  7  8  9  10  11  12  13  14  15  25  28  32  33  34  35 0
 6-311+G(2d,p)
 ****
 36  39  40 0
 6-311+G(2d,p)
 ****
 1  2  3  4  5  16  17  18  19  20  21  22  23  24 0
 3-21G
 ****
 26  27  29  30  31  37  38  41  42  43  44  45  46  47  48 0
 3-21G
 ****


