%nproc=1
%NoSave
%Mem=1900MB
#P OB98/GEN NMR

erre ene a

0 1
  C       16.154     -51.230     199.984
  O       14.759     -51.418     199.836
  H       16.621     -51.268     198.996
  H       16.572     -52.028     200.603
  H       16.364     -50.257     200.437
  P       13.865     -51.164     201.140
  C       14.006     -53.620     202.050
  O       13.194     -52.571     201.541
  C       13.355     -54.970     201.769
  O       14.150     -56.045     202.307
  C       12.000     -55.159     202.430
  O       10.983     -54.401     201.813
  C       11.817     -56.662     202.273
  O       11.278     -56.999     200.990
  C       13.267     -57.187     202.414
  N       13.456     -57.920     203.652
  C       12.985     -59.240     203.644
  O       12.472     -59.707     202.627
  N       13.075     -59.976     204.796
  C       13.564     -59.436     205.869
  N       13.595     -60.211     206.987
  C       14.069     -58.050     205.920
  C       13.986     -57.353     204.786
  O       12.635     -50.326     200.556
  O       14.578     -50.498     202.267
  H       11.806     -56.501     200.331
  H       12.235     -50.718     199.762
  H       14.481     -57.651     206.836
  H       14.333     -56.328     204.734
  H       13.517     -57.854     201.579
  H       11.130     -57.065     203.022
  H       12.069     -54.934     203.503
  H       13.288     -55.098     200.680
  H       13.187     -61.136     206.922
  H       14.170     -53.492     203.125
  H       13.879     -59.874     207.895
  H       14.981     -53.555     201.557
  P       10.027     -53.441     202.665
  C        8.129     -55.078     202.071
  O        8.525     -53.714     202.158
  O       10.417     -52.001     202.680
  O       10.019     -54.128     204.112
  H        9.688     -55.043     204.128
  H        7.118     -55.135     201.725
  H        8.201     -55.533     203.037
  H        8.770     -55.592     201.386

 6  7  8  9  10  11  12  13  14  15  16  26  30  31  32  33  35 0
 6-311+G(2d,p)
 ****
 37  38 0
 6-311+G(2d,p)
 ****
 1  2  3  4  5  17  18  19  20  21  22  23  24  25 0
 3-21G
 ****
 27  28  29  34  36  39  40  41  42  43  44  45  46 0
 3-21G
 ****


