%nproc=1
%NoSave
%Mem=1900MB
#P OB98/GEN NMR

erre ene a

0 1
  C       87.314    -278.279      27.983
  O       88.127    -277.905      29.078
  H       87.531    -277.614      27.142
  H       86.263    -278.165      28.256
  H       87.513    -279.310      27.681
  P       88.278    -278.962      30.276
  C       86.553    -280.112      31.840
  O       86.871    -278.971      31.058
  C       85.299    -279.853      32.679
  O       85.635    -278.898      33.734
  C       84.120    -279.271      31.881
  O       82.897    -279.812      32.396
  C       84.168    -277.794      32.239
  O       82.909    -277.151      32.062
  C       84.627    -277.868      33.691
  N       83.183    -273.433      35.553
  C       82.473    -274.601      35.362
  N       81.156    -274.572      35.656
  N       83.008    -275.708      34.914
  C       84.339    -275.606      34.680
  C       85.157    -274.511      34.821
  C       84.550    -273.282      35.300
  O       85.123    -272.212      35.468
  N       86.437    -274.797      34.416
  C       86.390    -276.057      34.012
  N       85.137    -276.590      34.152
  O       89.267    -278.206      31.285
  O       88.798    -280.304      29.883
  H       82.632    -277.272      31.130
  H       90.187    -278.493      31.123
  H       82.723    -272.603      35.881
  H       87.215    -276.612      33.598
  H       83.816    -278.153      34.375
  H       84.910    -277.282      31.615
  H       80.679    -273.768      36.031
  H       84.179    -279.449      30.801
  H       80.627    -275.434      35.560
  H       85.009    -280.788      33.173
  H       87.391    -280.334      32.511
  H       86.398    -280.971      31.178
  P       82.228    -281.043      31.610
  C       81.346    -281.421      29.188
  O       81.605    -280.499      30.237
  O       80.934    -281.374      32.493
  O       83.122    -282.236      31.479
  H       80.758    -282.333      32.479
  H       80.935    -280.900      28.349
  H       80.649    -282.159      29.526
  H       82.259    -281.898      28.899

 6  7  8  9  10  11  12  13  14  15  26  29  33  34 0
 6-311+G(2d,p)
 ****
 36  38  39  40  41 0
 6-311+G(2d,p)
 ****
 1  2  3  4  5  16  17  18  19  20  21  22  23  24  25 0
 3-21G
 ****
 27  28  30  31  32  35  37  42  43  44  45  46  47 0
 3-21G
 ****
 48  49 0
 3-21G
 ****


