%nproc=1
%NoSave
%Mem=1900MB
#P OB98/GEN NMR

erre ene a

0 1
  C       79.202    -409.248     266.092
  O       80.021    -409.150     267.262
  P       81.611    -409.137     267.051
  C       82.037    -406.645     267.678
  O       82.061    -407.648     266.668
  C       83.461    -406.292     268.108
  O       84.188    -405.663     267.035
  C       83.512    -405.302     269.258
  O       83.243    -405.949     270.486
  C       84.932    -404.758     269.148
  O       85.860    -405.537     269.916
  C       85.234    -404.880     267.635
  N       85.369    -403.589     266.985
  C       86.496    -402.839     267.338
  O       87.290    -403.272     268.174
  N       86.678    -401.609     266.755
  C       85.797    -401.159     265.913
  N       86.027    -399.935     265.374
  C       84.580    -401.908     265.533
  C       84.430    -403.102     266.102
  O       81.805    -409.945     265.685
  O       82.374    -409.761     268.174
  H       85.616    -406.473     269.752
  H       82.644    -410.435     265.699
  H       83.873    -401.487     264.836
  H       83.568    -403.723     265.884
  H       86.169    -405.434     267.479
  H       84.995    -403.729     269.520
  H       82.790    -404.491     269.086
  H       83.980    -407.221     268.388
  H       86.869    -399.450     265.656
  H       81.462    -406.993     268.542
  H       85.406    -399.484     264.716
  H       81.514    -405.765     267.287
  P       82.499    -405.110     271.626
  C       80.165    -406.144     271.359
  O       80.973    -405.006     271.138
  O       83.032    -403.624     271.349
  O       82.719    -405.531     273.042
  H       82.723    -403.019     272.049
  H       79.119    -405.874     271.179
  H       80.264    -406.497     272.387
  H       80.445    -406.938     270.660
  H       78.171    -409.246     266.377
  H       79.427    -410.157     265.574
  H       79.396    -408.414     265.450

 3  4  5  6  7  8  9  10  11  12  13  21  23  27  28  29  30  32 0
 6-311+G(2d,p)
 ****
 34  35 0
 6-311+G(2d,p)
 ****
 1  2  14  15  16  17  18  19  20  22  24  25  26 0
 3-21G
 ****
 31  33  36  37  38  39  40  41  42  43  44  45  46 0
 3-21G
 ****


