%nproc=1
%NoSave
%Mem=1900MB
#P OB98/GEN NMR

erre ene a

0 1
  C     -458.592     996.511     482.459
  O     -458.410     996.358     481.052
  P     -457.649     995.027     480.567
  C     -458.304     992.610     479.886
  O     -458.754     993.901     480.257
  C     -459.502     991.716     479.543
  O     -460.389     991.555     480.681
  C     -460.374     992.266     478.426
  O     -459.750     992.092     477.164
  C     -461.651     991.454     478.628
  O     -461.499     990.141     478.065
  C     -461.723     991.348     480.158
  N     -466.604     992.882     480.477
  C     -466.008     991.873     479.788
  N     -464.708     991.531     479.760
  C     -463.987     992.348     480.537
  C     -464.442     993.419     481.295
  C     -465.818     993.678     481.240
  N     -466.418     994.716     481.932
  N     -463.401     994.024     481.975
  C     -462.329     993.348     481.608
  N     -462.626     992.321     480.754
  O     -456.931     994.509     481.894
  O     -456.668     995.269     479.463
  H     -460.804     989.681     478.573
  H     -455.963     994.651     481.831
  H     -466.674     991.258     479.182
  H     -461.309     993.558     481.941
  H     -462.052     990.351     480.495
  H     -462.533     991.907     478.163
  H     -460.587     993.338     478.598
  H     -459.112     990.726     479.261
  H     -457.723     992.163     480.700
  H     -467.396     994.883     481.772
  H     -465.836     995.366     482.438
  H     -457.619     992.703     479.033
  P     -458.765     993.258     476.652
  C     -456.475     994.037     477.526
  O     -457.387     992.949     477.435
  O     -459.337     994.525     477.429
  O     -458.661     993.382     475.176
  H     -459.517     994.333     478.367
  H     -455.609     993.706     478.106
  H     -456.949     994.887     478.024
  H     -456.141     994.323     476.520
  H     -459.107     997.428     482.654
  H     -457.638     996.528     482.942
  H     -459.168     995.692     482.835

 3  4  5  6  7  8  9  10  11  12  22  25  29  30  31  32 0
 6-311+G(2d,p)
 ****
 33  36  37 0
 6-311+G(2d,p)
 ****
 1  2  13  14  15  16  17  18  19  20  21  23  24  26 0
 3-21G
 ****
 27  28  34  35  38  39  40  41  42  43  44  45  46  47  48 0
 3-21G
 ****


