%nproc=1
%NoSave
%Mem=1900MB
#P OB98/GEN NMR

erre ene a

0 1
  C      -21.544    -137.451    -134.613
  O      -22.472    -138.269    -133.932
  P      -23.516    -139.196    -134.722
  C      -25.429    -137.604    -134.073
  O      -24.728    -138.228    -135.139
  C      -26.940    -137.631    -134.308
  O      -27.246    -137.008    -135.587
  C      -27.560    -139.037    -134.317
  O      -28.872    -138.899    -133.760
  C      -27.641    -139.347    -135.799
  O      -28.565    -140.388    -136.093
  C      -27.996    -137.965    -136.365
  N      -27.704    -137.867    -137.792
  C      -28.801    -137.813    -138.656
  O      -29.947    -137.927    -138.214
  N      -28.576    -137.687    -140.004
  C      -27.361    -137.721    -140.455
  N      -27.200    -137.586    -141.799
  C      -26.181    -137.903    -139.590
  C      -26.422    -137.954    -138.280
  O      -23.923    -140.443    -134.013
  O      -22.793    -139.465    -136.125
  H      -28.559    -140.542    -137.062
  H      -22.086    -140.149    -136.022
  H      -25.193    -137.982    -140.015
  H      -25.619    -138.086    -137.566
  H      -29.061    -137.747    -136.214
  H      -26.654    -139.663    -136.163
  H      -26.979    -139.775    -133.761
  H      -27.413    -137.018    -133.529
  H      -28.034    -137.449    -142.355
  H      -25.103    -136.560    -134.016
  H      -26.295    -137.517    -142.243
  H      -25.174    -138.085    -133.122
  P      -29.302    -139.692    -132.435
  C      -30.835    -141.312    -133.693
  O      -29.679    -141.183    -132.885
  O      -30.329    -139.009    -131.594
  O      -27.930    -139.892    -131.631
  H      -28.128    -140.136    -130.707
  H      -30.834    -142.302    -134.162
  H      -30.855    -140.550    -134.476
  H      -31.729    -141.216    -133.070
  H      -20.947    -136.920    -133.901
  H      -22.070    -136.752    -135.230
  H      -20.912    -138.061    -135.224

 3  4  5  6  7  8  9  10  11  12  13  23  27  28  29  30  32 0
 6-311+G(2d,p)
 ****
 34  35 0
 6-311+G(2d,p)
 ****
 1  2  14  15  16  17  18  19  20  21  22  24  25  26 0
 3-21G
 ****
 31  33  36  37  38  39  40  41  42  43  44  45  46 0
 3-21G
 ****


