%nproc=1
%NoSave
%Mem=1900MB
#P OB98/GEN NMR

erre ene a

0 1
  C     -161.999    -320.716     345.262
  O     -163.146    -321.391     344.799
  H     -161.338    -321.441     345.743
  H     -162.264    -319.951     345.990
  H     -161.456    -320.256     344.429
  P     -164.311    -320.543     344.092
  C     -165.973    -320.753     346.063
  O     -165.171    -319.872     345.271
  C     -167.212    -320.006     346.597
  O     -167.861    -320.874     347.566
  C     -166.837    -318.684     347.287
  O     -167.576    -317.570     346.791
  C     -166.979    -319.025     348.774
  O     -167.271    -317.910     349.594
  C     -168.053    -320.118     348.781
  N     -167.980    -321.004     349.945
  C     -168.311    -320.459     351.184
  O     -168.674    -319.311     351.381
  N     -168.230    -321.322     352.252
  C     -167.829    -322.633     352.205
  O     -167.778    -323.354     353.188
  C     -167.467    -323.144     350.865
  C     -167.556    -322.324     349.825
  O     -165.112    -321.276     343.070
  O     -163.548    -319.288     343.455
  H     -167.301    -318.241     350.530
  H     -163.480    -319.410     342.488
  H     -168.482    -320.954     353.148
  H     -167.137    -324.175     350.797
  H     -167.301    -322.656     348.817
  H     -169.056    -319.687     348.757
  H     -166.031    -319.450     349.124
  H     -165.798    -318.411     347.091
  H     -167.915    -319.849     345.773
  H     -165.352    -321.110     346.896
  H     -166.289    -321.614     345.460
  P     -166.970    -316.419     345.857
  C     -166.177    -314.674     347.673
  O     -165.832    -315.648     346.685
  O     -167.963    -315.580     345.134
  O     -166.122    -317.220     344.745
  H     -166.166    -316.693     343.921
  H     -165.284    -314.277     348.109
  H     -166.772    -315.133     348.434
  H     -166.733    -313.883     347.215

 6  7  8  9  10  11  12  13  14  15  16  26  31  32  33  34  35 0
 6-311+G(2d,p)
 ****
 36  37 0
 6-311+G(2d,p)
 ****
 1  2  3  4  5  17  18  19  20  21  22  23  24  25 0
 3-21G
 ****
 27  28  29  30  38  39  40  41  42  43  44  45 0
 3-21G
 ****


