%nproc=1
%NoSave
%Mem=1900MB
#P OB98/GEN NMR

erre ene a

0 1
  C     -147.948      19.168    -118.744
  O     -148.836      20.265    -118.684
  H     -147.411      19.164    -119.697
  H     -147.223      19.258    -117.931
  H     -148.500      18.232    -118.623
  P     -149.916      20.372    -119.865
  C     -151.655      19.908    -118.000
  O     -151.331      20.656    -119.162
  C     -152.712      20.638    -117.182
  O     -152.138      21.799    -116.548
  C     -153.893      21.164    -117.989
  O     -154.829      20.138    -118.291
  C     -154.471      22.179    -117.013
  O     -155.276      21.503    -116.030
  C     -153.211      22.758    -116.352
  N     -151.269      27.387    -115.269
  C     -151.556      26.323    -114.485
  N     -152.079      25.132    -114.837
  C     -152.299      25.081    -116.162
  C     -152.057      26.083    -117.086
  C     -151.523      27.286    -116.594
  N     -151.249      28.369    -117.400
  N     -152.391      25.666    -118.356
  C     -152.830      24.433    -118.204
  N     -152.799      24.037    -116.893
  O     -150.058      18.860    -120.380
  O     -149.556      21.297    -120.979
  H     -156.125      21.290    -116.463
  H     -150.198      18.867    -121.345
  H     -151.331      26.445    -113.428
  H     -153.171      23.794    -119.010
  H     -153.341      22.871    -115.270
  H     -155.104      22.927    -117.496
  H     -153.557      21.682    -118.894
  H     -153.055      19.959    -116.390
  H     -150.756      19.777    -117.389
  H     -150.691      29.119    -117.028
  H     -151.435      28.281    -118.394
  H     -152.023      18.923    -118.306
  P     -156.015      20.497    -119.314
  C     -154.739      19.746    -121.445
  O     -155.826      19.503    -120.559
  O     -155.565      21.915    -119.906
  O     -157.376      20.553    -118.712
  H     -156.349      22.410    -120.214
  H     -154.739      19.009    -122.221
  H     -153.818      19.693    -120.903
  H     -154.842      20.719    -121.878

 6  7  8  9  10  11  12  13  14  15  25  28  32  33  34  35 0
 6-311+G(2d,p)
 ****
 36  39  40 0
 6-311+G(2d,p)
 ****
 1  2  3  4  5  16  17  18  19  20  21  22  23  24 0
 3-21G
 ****
 26  27  29  30  31  37  38  41  42  43  44  45  46  47  48 0
 3-21G
 ****


