%nproc=1
%NoSave
%Mem=1900MB
#P OB98/GEN NMR

erre ene a

0 1
  C      -94.376     163.118      -0.267
  O      -94.070     161.740      -0.338
  H      -94.450     163.512      -1.284
  H      -93.581     163.650       0.260
  H      -95.332     163.271       0.243
  P      -94.098     160.923       1.047
  C      -96.489     159.933       0.610
  O      -95.650     160.750       1.408
  C      -97.959     160.278       0.852
  O      -98.212     160.258       2.278
  C      -98.366     161.653       0.324
  O      -99.696     161.567      -0.190
  C      -98.343     162.531       1.563
  O      -99.182     163.676       1.419
  C      -98.766     161.537       2.653
  N      -98.314     161.944       3.982
  C      -99.237     162.626       4.779
  O     -100.363     162.875       4.347
  N      -98.855     163.046       6.027
  C      -97.631     162.867       6.419
  N      -97.308     163.326       7.658
  C      -96.608     162.201       5.590
  C      -97.016     161.761       4.402
  O      -93.584     162.027       2.084
  O      -93.297     159.665       1.031
  H      -99.132     164.196       2.252
  H      -93.956     162.911       1.928
  H      -95.598     162.088       5.955
  H      -96.331     161.253       3.731
  H      -99.858     161.432       2.678
  H      -97.322     162.886       1.750
  H      -97.700     162.035      -0.449
  H      -98.576     159.486       0.413
  H      -98.033     163.795       8.186
  H      -96.320     158.877       0.840
  H      -96.376     163.287       8.043
  H      -96.227     160.102      -0.439
  P      -99.921     161.128      -1.713
  C     -100.704     158.729      -1.180
  O      -99.735     159.538      -1.829
  O      -99.184     161.926      -2.735
  O     -101.508     161.298      -1.902
  H     -101.667     161.652      -2.798
  H     -100.467     157.697      -1.333
  H     -101.672     158.937      -1.586
  H     -100.704     158.944      -0.132

 6  7  8  9  10  11  12  13  14  15  16  26  30  31  32  33  35 0
 6-311+G(2d,p)
 ****
 37  38 0
 6-311+G(2d,p)
 ****
 1  2  3  4  5  17  18  19  20  21  22  23  24  25 0
 3-21G
 ****
 27  28  29  34  36  39  40  41  42  43  44  45  46 0
 3-21G
 ****


