%nproc=1
%NoSave
%Mem=1900MB
#P OB98/GEN NMR

erre ene a

0 1
  C       75.010    -203.826      21.266
  O       75.633    -204.629      20.272
  P       75.861    -203.994      18.817
  C       73.828    -205.370      17.977
  O       74.460    -204.099      18.036
  C       73.524    -205.768      16.534
  O       72.480    -204.902      16.014
  C       74.718    -205.663      15.579
  O       74.574    -206.700      14.601
  C       74.504    -204.318      14.911
  O       75.202    -204.214      13.673
  C       72.983    -204.309      14.797
  N       71.625    -200.714      11.424
  C       72.097    -201.969      11.259
  N       72.434    -202.866      12.207
  C       72.246    -202.354      13.435
  C       71.806    -201.082      13.758
  C       71.481    -200.236      12.683
  N       70.992    -198.962      12.847
  N       71.768    -200.915      15.126
  C       72.178    -202.065      15.621
  N       72.454    -202.971      14.637
  O       76.774    -205.093      18.095
  O       76.508    -202.653      18.802
  H       74.924    -203.388      13.234
  H       77.671    -204.735      17.949
  H       72.210    -202.297      10.229
  H       72.292    -202.287      16.673
  H       72.627    -204.916      13.954
  H       74.860    -203.518      15.567
  H       75.693    -205.739      16.071
  H       73.123    -206.790      16.535
  H       72.889    -205.320      18.532
  H       70.654    -198.471      12.036
  H       70.702    -198.667      13.774
  H       74.470    -206.120      18.450
  P       75.889    -207.537      14.228
  C       76.504    -205.654      12.553
  O       76.934    -206.498      13.605
  O       75.426    -208.413      12.970
  O       76.402    -208.395      15.338
  H       75.946    -209.236      12.927
  H       77.023    -204.695      12.635
  H       75.425    -205.477      12.587
  H       76.760    -206.117      11.596
  H       74.928    -204.384      22.175
  H       74.034    -203.541      20.934
  H       75.599    -202.949      21.437

 3  4  5  6  7  8  9  10  11  12  22  25  29  30  31  32 0
 6-311+G(2d,p)
 ****
 33  36  37 0
 6-311+G(2d,p)
 ****
 1  2  13  14  15  16  17  18  19  20  21  23  24  26 0
 3-21G
 ****
 27  28  34  35  38  39  40  41  42  43  44  45  46  47  48 0
 3-21G
 ****


