%nproc=1
%NoSave
%Mem=1900MB
#P OB98/GEN NMR

erre ene a

0 1
  C      -30.156    -575.201     -17.778
  O      -29.692    -575.851     -18.944
  H      -31.207    -574.934     -17.923
  H      -29.588    -574.283     -17.599
  H      -30.082    -575.863     -16.911
  P      -28.168    -576.345     -18.989
  C      -26.000    -574.930     -19.032
  O      -27.345    -575.038     -19.454
  C      -25.584    -573.460     -18.974
  O      -26.353    -572.735     -17.989
  C      -24.130    -573.220     -18.573
  O      -23.193    -573.532     -19.592
  C      -24.185    -571.730     -18.283
  O      -24.217    -570.993     -19.513
  C      -25.531    -571.625     -17.525
  N      -25.368    -571.686     -16.071
  C      -26.152    -570.809     -15.315
  O      -26.929    -570.022     -15.869
  N      -26.020    -570.806     -13.946
  C      -25.160    -571.601     -13.388
  N      -25.065    -571.553     -12.021
  C      -24.301    -572.525     -14.137
  C      -24.455    -572.523     -15.465
  O      -27.903    -577.582     -19.783
  O      -27.736    -576.465     -17.451
  H      -24.845    -571.451     -20.097
  H      -26.799    -576.778     -17.425
  H      -23.584    -573.147     -13.627
  H      -23.856    -573.174     -16.089
  H      -26.052    -570.698     -17.786
  H      -23.322    -571.369     -17.713
  H      -23.885    -573.751     -17.644
  H      -25.811    -573.017     -19.955
  H      -25.671    -570.906     -11.535
  H      -25.374    -575.487     -19.737
  H      -24.377    -572.076     -11.507
  H      -25.885    -575.360     -18.035
  P      -21.645    -573.556     -19.172
  C      -20.225    -571.789     -17.877
  O      -21.249    -572.045     -18.820
  O      -20.899    -573.844     -20.559
  O      -21.289    -574.550     -18.114
  H      -20.669    -574.790     -20.637
  H      -20.097    -570.732     -17.768
  H      -19.310    -572.226     -18.217
  H      -20.495    -572.215     -16.933

 6  7  8  9  10  11  12  13  14  15  16  26  30  31  32  33  35 0
 6-311+G(2d,p)
 ****
 37  38 0
 6-311+G(2d,p)
 ****
 1  2  3  4  5  17  18  19  20  21  22  23  24  25 0
 3-21G
 ****
 27  28  29  34  36  39  40  41  42  43  44  45  46 0
 3-21G
 ****


