%nproc=1
%NoSave
%Mem=1900MB
#P OB98/GEN NMR

erre ene a

0 1
  C      -13.951     106.919     265.021
  O      -15.148     106.678     264.310
  H      -13.624     105.982     265.482
  H      -14.112     107.659     265.809
  H      -13.168     107.263     264.340
  P      -15.897     107.922     263.634
  C      -17.286     109.927     264.494
  O      -16.445     108.834     264.834
  C      -17.783     110.645     265.757
  O      -18.726     109.777     266.448
  C      -16.666     110.992     266.753
  O      -17.070     112.177     267.453
  C      -16.704     109.789     267.676
  O      -15.990     110.026     268.865
  C      -18.217     109.571     267.785
  N      -18.555     108.255     268.303
  C      -18.424     108.080     269.682
  O      -18.025     109.006     270.391
  N      -18.715     106.854     270.223
  C      -19.041     105.869     269.446
  N      -19.302     104.676     270.045
  C      -19.137     105.995     267.977
  C      -18.887     107.205     267.478
  O      -16.911     107.583     262.592
  O      -14.706     108.804     263.025
  H      -15.037     110.177     268.677
  H      -14.678     108.693     262.057
  H      -19.394     105.138     267.372
  H      -18.929     107.396     266.411
  H      -18.674     110.330     268.433
  H      -16.233     108.924     267.198
  H      -15.698     111.148     266.273
  H      -18.339     111.540     265.456
  H      -19.215     104.631     271.053
  H      -18.136     109.529     263.933
  H      -19.547     103.836     269.541
  H      -16.745     110.636     263.859
  P      -17.306     113.583     266.718
  C      -15.884     115.501     265.739
  O      -15.908     114.353     266.583
  O      -18.399     114.407     267.321
  O      -17.669     113.204     265.202
  H      -18.271     113.881     264.841
  H      -14.900     115.920     265.735
  H      -16.580     116.227     266.105
  H      -16.155     115.217     264.743

 6  7  8  9  10  11  12  13  14  15  16  26  30  31  32  33  35 0
 6-311+G(2d,p)
 ****
 37  38 0
 6-311+G(2d,p)
 ****
 1  2  3  4  5  17  18  19  20  21  22  23  24  25 0
 3-21G
 ****
 27  28  29  34  36  39  40  41  42  43  44  45  46 0
 3-21G
 ****


