%nproc=1
%NoSave
%Mem=1900MB
#P OB98/GEN NMR

erre ene a

0 1
  C      636.848    -506.384     370.626
  O      636.026    -507.036     369.646
  P      634.828    -507.950     370.204
  C      636.134    -510.066     370.995
  O      635.422    -508.897     371.356
  C      636.519    -510.911     372.205
  O      635.316    -511.475     372.839
  C      637.436    -512.104     371.859
  O      638.302    -512.305     372.978
  C      636.476    -513.272     371.756
  O      637.159    -514.518     371.921
  C      635.485    -512.912     372.879
  N      634.182    -513.604     372.738
  C      633.725    -514.315     373.858
  O      634.420    -514.385     374.888
  N      632.505    -514.926     373.784
  C      631.835    -514.903     372.676
  N      630.635    -515.549     372.666
  C      632.317    -514.231     371.449
  C      633.488    -513.598     371.565
  O      634.568    -508.973     368.987
  O      633.604    -507.197     370.560
  H      636.497    -515.244     371.866
  H      633.611    -509.005     368.797
  H      631.727    -514.255     370.537
  H      633.934    -513.075     370.712
  H      635.891    -513.176     373.866
  H      635.982    -513.266     370.781
  H      638.037    -511.939     370.975
  H      636.998    -510.265     372.938
  H      630.337    -516.000     373.531
  H      637.054    -509.782     370.469
  H      630.042    -515.600     371.871
  H      635.535    -510.631     370.273
  P      639.601    -511.362     373.143
  C      641.562    -512.827     372.367
  O      640.602    -511.848     371.991
  O      640.283    -511.970     374.453
  O      639.384    -509.895     373.274
  H      641.052    -511.435     374.706
  H      642.090    -513.159     371.475
  H      641.091    -513.683     372.829
  H      642.305    -512.389     373.065
  H      637.604    -505.810     370.132
  H      637.310    -507.120     371.251
  H      636.243    -505.736     371.225

 3  4  5  6  7  8  9  10  11  12  13  21  23  27  28  29  30  32 0
 6-311+G(2d,p)
 ****
 34  35 0
 6-311+G(2d,p)
 ****
 1  2  14  15  16  17  18  19  20  22  24  25  26 0
 3-21G
 ****
 31  33  36  37  38  39  40  41  42  43  44  45  46 0
 3-21G
 ****


