%nproc=1
%NoSave
%Mem=1900MB
#P OB98/GEN NMR

erre ene a

0 1
  C       14.282     -29.807      10.396
  O       13.802     -31.086      10.757
  P       13.161     -31.366      12.199
  C       15.361     -32.080      13.323
  O       14.338     -31.098      13.258
  C       15.767     -32.366      14.770
  O       16.480     -31.220      15.310
  C       14.596     -32.670      15.714
  O       15.084     -33.621      16.665
  C       14.355     -31.328      16.378
  O       13.625     -31.440      17.591
  C       15.793     -30.811      16.512
  N       15.839     -29.368      16.710
  C       16.569     -28.906      17.808
  O       17.072     -29.706      18.600
  N       16.668     -27.553      18.017
  C       16.006     -26.740      17.255
  N       16.146     -25.411      17.506
  C       15.123     -27.192      16.164
  C       15.098     -28.503      15.939
  O       12.474     -32.681      12.344
  O       12.196     -30.112      12.433
  H       12.677     -31.572      17.371
  H       11.361     -30.219      11.912
  H       14.548     -26.479      15.592
  H       14.482     -28.929      15.160
  H       16.299     -31.293      17.360
  H       13.782     -30.681      15.702
  H       13.709     -33.053      15.204
  H       16.469     -33.209      14.762
  H       16.773     -25.144      18.255
  H       16.232     -31.698      12.784
  H       15.742     -24.693      16.924
  H       15.033     -32.996      12.822
  P       14.277     -34.968      16.985
  C       12.959     -33.785      18.832
  O       12.880     -34.534      17.633
  O       15.039     -35.991      17.762
  O       13.853     -35.528      15.544
  H       13.583     -36.461      15.626
  H       11.991     -33.314      19.022
  H       13.724     -33.006      18.759
  H       13.200     -34.451      19.665
  H       14.666     -29.839       9.398
  H       15.061     -29.515      11.069
  H       13.482     -29.098      10.448

 3  4  5  6  7  8  9  10  11  12  13  23  27  28  29  30  32 0
 6-311+G(2d,p)
 ****
 34  35 0
 6-311+G(2d,p)
 ****
 1  2  14  15  16  17  18  19  20  21  22  24  25  26 0
 3-21G
 ****
 31  33  36  37  38  39  40  41  42  43  44  45  46 0
 3-21G
 ****


