%nproc=1
%NoSave
%Mem=1900MB
#P OB98/GEN NMR

erre ene a

0 1
  C      281.420    -109.915    -154.096
  O      281.174    -110.895    -153.110
  H      280.492    -109.719    -154.632
  H      282.163    -110.287    -154.804
  H      281.769    -108.981    -153.640
  P      282.308    -111.097    -151.986
  C      282.226    -113.669    -152.357
  O      282.134    -112.592    -151.430
  C      281.321    -114.818    -151.932
  O      281.782    -115.391    -150.689
  C      279.862    -114.420    -151.704
  O      279.134    -114.386    -152.924
  C      279.394    -115.558    -150.812
  O      279.160    -116.732    -151.618
  C      280.615    -115.778    -149.907
  N      278.326    -115.125    -145.420
  C      278.011    -115.986    -146.463
  N      276.934    -116.775    -146.284
  N      278.695    -116.052    -147.577
  C      279.737    -115.187    -147.622
  C      280.139    -114.287    -146.662
  C      279.390    -114.232    -145.431
  O      279.629    -113.496    -144.474
  N      281.239    -113.577    -147.071
  C      281.485    -114.031    -148.284
  N      280.600    -115.010    -148.671
  O      281.785    -110.175    -150.784
  O      283.685    -110.709    -152.405
  H      278.348    -116.569    -152.133
  H      282.294    -109.345    -150.772
  H      277.764    -115.103    -144.587
  H      282.290    -113.688    -148.918
  H      280.741    -116.826    -149.623
  H      278.453    -115.334    -150.296
  H      276.351    -116.755    -145.465
  H      279.781    -113.466    -151.158
  H      276.688    -117.414    -147.030
  H      281.391    -115.604    -152.698
  H      283.268    -114.016    -152.391
  H      281.934    -113.311    -153.350
  P      278.561    -112.979    -153.429
  C      276.026    -113.518    -153.308
  O      277.153    -113.272    -154.138
  O      279.529    -112.620    -154.649
  O      278.544    -111.891    -152.407
  H      280.088    -111.844    -154.422
  H      275.165    -113.696    -153.919
  H      275.851    -112.667    -152.683
  H      276.213    -114.376    -152.697

 6  7  8  9  10  11  12  13  14  15  26  29  33  34 0
 6-311+G(2d,p)
 ****
 36  38  39  40  41 0
 6-311+G(2d,p)
 ****
 1  2  3  4  5  16  17  18  19  20  21  22  23  24  25 0
 3-21G
 ****
 27  28  30  31  32  35  37  42  43  44  45  46  47 0
 3-21G
 ****
 48  49 0
 3-21G
 ****


