%nproc=1
%NoSave
%Mem=1900MB
#P OB98/GEN NMR

erre ene a

0 1
  C      409.505    -128.093    -137.995
  O      408.574    -127.759    -139.039
  P      407.227    -128.586    -139.314
  C      407.665    -128.994    -141.823
  O      406.804    -128.409    -140.855
  C      407.758    -128.134    -143.092
  O      406.435    -128.019    -143.715
  C      408.281    -126.708    -142.856
  O      409.119    -126.386    -143.977
  C      407.002    -125.890    -142.873
  O      407.211    -124.509    -143.098
  C      406.247    -126.613    -144.007
  N      404.821    -126.298    -144.105
  C      404.444    -125.299    -145.012
  O      405.271    -124.677    -145.668
  N      403.094    -125.034    -145.158
  C      402.224    -125.670    -144.449
  N      400.912    -125.354    -144.651
  C      402.579    -126.707    -143.469
  C      403.882    -126.975    -143.347
  O      406.121    -128.268    -138.358
  O      407.637    -130.128    -139.198
  H      406.904    -130.627    -138.805
  H      407.862    -124.196    -142.439
  H      401.819    -127.225    -142.902
  H      404.230    -127.740    -142.664
  H      406.743    -126.405    -144.957
  H      406.497    -126.008    -141.905
  H      408.867    -126.596    -141.940
  H      408.392    -128.664    -143.811
  H      400.700    -124.640    -145.337
  H      407.272    -129.984    -142.094
  H      400.151    -125.793    -144.166
  H      408.656    -129.134    -141.380
  P      410.709    -126.602    -143.872
  C      411.266    -124.118    -144.409
  O      411.413    -125.472    -144.760
  O      410.928    -127.915    -144.764
  O      411.254    -126.820    -142.493
  H      411.739    -128.376    -144.467
  H      412.235    -123.616    -144.488
  H      410.898    -123.986    -143.390
  H      410.566    -123.631    -145.104
  H      410.321    -127.400    -138.009
  H      409.876    -129.084    -138.152
  H      409.011    -128.043    -137.047

 3  4  5  6  7  8  9  10  11  12  13  24  27  28  29  30  32 0
 6-311+G(2d,p)
 ****
 34  35 0
 6-311+G(2d,p)
 ****
 1  2  14  15  16  17  18  19  20  21  22  23  25  26 0
 3-21G
 ****
 31  33  36  37  38  39  40  41  42  43  44  45  46 0
 3-21G
 ****


