%nproc=1
%NoSave
%Mem=1900MB
#P OB98/GEN NMR

erre ene a

0 1
  C      -32.759     157.811    -157.821
  O      -33.760     156.853    -157.552
  H      -32.382     157.646    -158.835
  H      -31.929     157.699    -157.120
  H      -33.163     158.825    -157.760
  P      -34.598     156.974    -156.192
  C      -33.326     154.944    -155.240
  O      -33.715     156.297    -155.038
  C      -31.914     154.723    -154.705
  O      -31.079     155.858    -155.032
  C      -31.845     154.592    -153.189
  O      -32.298     153.324    -152.755
  C      -30.370     154.867    -152.946
  O      -29.579     153.695    -153.174
  C      -30.064     155.947    -154.007
  N      -30.019     157.289    -153.428
  C      -28.772     157.731    -152.996
  O      -27.743     157.063    -153.094
  N      -28.751     158.958    -152.388
  C      -29.852     159.697    -152.052
  O      -29.808     160.659    -151.295
  C      -31.133     159.212    -152.587
  C      -31.160     158.042    -153.230
  O      -36.015     156.511    -156.262
  O      -34.514     158.535    -155.838
  H      -35.353     158.967    -156.084
  H      -28.647     153.974    -153.063
  H      -27.856     159.266    -152.035
  H      -32.018     159.808    -152.404
  H      -32.099     157.647    -153.603
  H      -29.103     155.745    -154.495
  H      -30.187     155.199    -151.922
  H      -32.436     155.386    -152.720
  H      -31.493     153.836    -155.194
  H      -33.348     154.729    -156.314
  H      -34.042     154.288    -154.732
  P      -33.726     153.179    -152.039
  C      -32.596     151.991    -150.060
  O      -33.484     153.029    -150.463
  O      -34.632     152.156    -152.635
  O      -34.368     154.642    -152.160
  H      -35.274     154.560    -152.519
  H      -32.513     151.987    -148.993
  H      -31.632     152.159    -150.492
  H      -32.976     151.047    -150.392

 6  7  8  9  10  11  12  13  14  15  16  27  31  32  33  34  35 0
 6-311+G(2d,p)
 ****
 36  37 0
 6-311+G(2d,p)
 ****
 1  2  3  4  5  17  18  19  20  21  22  23  24  25 0
 3-21G
 ****
 26  28  29  30  38  39  40  41  42  43  44  45 0
 3-21G
 ****


