%nproc=1
%NoSave
%Mem=1900MB
#P OB98/GEN NMR

erre ene a

0 1
  C     -117.234     261.029       7.351
  O     -117.091     259.736       6.759
  P     -117.751     258.467       7.478
  C     -118.008     256.998       5.374
  O     -117.386     257.147       6.642
  C     -117.325     257.882       4.318
  O     -115.917     257.536       4.226
  C     -117.943     257.727       2.921
  O     -118.281     258.975       2.317
  C     -116.923     256.882       2.174
  O     -116.996     257.043       0.768
  C     -115.602     257.277       2.845
  N     -114.580     256.236       2.697
  C     -113.691     256.383       1.641
  O     -113.778     257.286       0.808
  N     -112.726     255.419       1.530
  C     -112.616     254.305       2.309
  O     -111.761     253.445       2.141
  C     -113.624     254.170       3.372
  C     -114.545     255.127       3.514
  O     -119.190     258.604       7.847
  O     -116.846     258.296       8.796
  H     -116.770     257.974       0.548
  H     -117.434     258.036       9.531
  H     -112.061     255.520       0.779
  H     -113.583     253.289       3.995
  H     -115.305     255.047       4.279
  H     -115.198     258.194       2.408
  H     -117.125     255.828       2.391
  H     -118.895     257.188       2.963
  H     -117.407     258.917       4.660
  H     -119.057     257.283       5.450
  H     -117.999     255.941       5.087
  P     -119.682     259.725       2.508
  C     -119.515     262.303       2.290
  O     -119.658     261.061       1.630
  O     -120.132     259.907       3.918
  O     -120.706     258.779       1.719
  H     -121.539     258.720       2.222
  H     -119.883     263.093       1.630
  H     -118.459     262.483       2.500
  H     -120.085     262.325       3.222
  H     -116.736     261.756       6.744
  H     -116.800     261.023       8.329
  H     -118.273     261.276       7.423

 3  4  5  6  7  8  9  10  11  12  13  23  28  29  30  31  32 0
 6-311+G(2d,p)
 ****
 33  34 0
 6-311+G(2d,p)
 ****
 1  2  14  15  16  17  18  19  20  21  22  24  25  26  27 0
 3-21G
 ****
 35  36  37  38  39  40  41  42  43  44  45 0
 3-21G
 ****


