%nproc=1
%NoSave
%Mem=1900MB
#P OB98/GEN NMR

erre ene a

0 1
  C      -29.331     259.491     162.191
  O      -30.650     259.610     162.734
  P      -31.017     258.660     163.973
  C      -32.266     256.814     162.650
  O      -31.129     257.150     163.436
  C      -31.971     255.637     161.715
  O      -31.541     254.468     162.469
  C      -33.177     255.202     160.877
  O      -32.683     254.743     159.609
  C      -33.719     254.014     161.645
  O      -34.552     253.195     160.829
  C      -32.416     253.376     162.121
  N      -33.045     248.511     163.531
  C      -32.869     249.086     162.321
  N      -32.732     250.399     162.027
  C      -32.747     251.136     163.153
  C      -32.928     250.692     164.450
  C      -33.087     249.307     164.625
  N      -33.295     248.721     165.852
  N      -32.933     251.755     165.330
  C      -32.764     252.821     164.572
  N      -32.614     252.494     163.254
  O      -32.531     259.058     164.303
  O      -30.132     258.848     165.160
  H      -34.010     252.853     160.088
  H      -32.569     259.566     165.133
  H      -32.838     248.405     161.475
  H      -32.748     253.844     164.924
  H      -31.930     252.785     161.332
  H      -34.317     254.367     162.499
  H      -33.929     255.982     160.718
  H      -31.145     255.920     161.051
  H      -32.576     257.676     162.054
  H      -33.426     247.723     165.889
  H      -33.375     249.308     166.670
  H      -33.106     256.592     163.315
  P      -32.859     255.740     158.368
  C      -35.191     254.993     157.515
  O      -34.433     255.972     158.198
  O      -32.467     254.839     157.104
  O      -32.025     256.975     158.455
  H      -32.151     255.401     156.375
  H      -36.144     254.860     158.033
  H      -34.679     254.030     157.468
  H      -35.387     255.342     156.497
  H      -29.218     260.175     161.376
  H      -29.178     258.491     161.841
  H      -28.611     259.718     162.950

 3  4  5  6  7  8  9  10  11  12  22  25  29  30  31  32 0
 6-311+G(2d,p)
 ****
 33  36  37 0
 6-311+G(2d,p)
 ****
 1  2  13  14  15  16  17  18  19  20  21  23  24  26 0
 3-21G
 ****
 27  28  34  35  38  39  40  41  42  43  44  45  46  47  48 0
 3-21G
 ****


