%nproc=1
%NoSave
%Mem=1900MB
#P OB98/GEN NMR

erre ene a

0 1
  C      303.737    -512.292    -642.230
  O      304.035    -513.624    -642.598
  P      304.382    -514.663    -641.430
  C      302.729    -516.619    -641.915
  O      304.078    -516.149    -641.966
  C      302.661    -518.111    -642.240
  O      302.923    -518.301    -643.673
  C      303.685    -518.969    -641.466
  O      303.098    -520.258    -641.210
  C      304.799    -519.168    -642.470
  O      305.572    -520.340    -642.175
  C      304.008    -519.255    -643.793
  N      308.260    -520.370    -646.287
  C      307.608    -521.080    -645.283
  N      308.254    -522.190    -644.848
  N      306.466    -520.734    -644.794
  C      305.958    -519.598    -645.329
  C      306.490    -518.821    -646.333
  C      307.769    -519.210    -646.880
  O      308.393    -518.614    -647.757
  N      305.669    -517.760    -646.647
  C      304.667    -517.852    -645.788
  N      304.818    -518.957    -644.968
  O      303.208    -514.423    -640.351
  O      305.735    -514.463    -640.821
  H      306.164    -520.106    -641.437
  H      303.568    -513.911    -639.584
  H      309.134    -520.682    -646.640
  H      303.822    -517.184    -645.733
  H      303.584    -520.242    -643.933
  H      305.449    -518.317    -642.452
  H      309.171    -522.478    -645.152
  H      304.029    -518.525    -640.533
  H      307.817    -522.702    -644.077
  H      301.635    -518.446    -642.070
  H      302.132    -516.060    -642.614
  H      302.331    -516.446    -640.896
  P      303.283    -520.834    -639.698
  C      300.766    -521.420    -639.415
  O      302.108    -521.878    -639.479
  O      302.875    -519.571    -638.798
  O      304.668    -521.308    -639.416
  H      303.305    -519.642    -637.931
  H      300.196    -521.824    -640.234
  H      300.695    -520.321    -639.407
  H      300.337    -521.764    -638.448
  H      303.527    -511.718    -643.108
  H      304.575    -511.867    -641.718
  H      302.883    -512.283    -641.585

 3  4  5  6  7  8  9  10  11  12  23  26  30  31 0
 6-311+G(2d,p)
 ****
 33  35  36  37  38 0
 6-311+G(2d,p)
 ****
 1  2  13  14  15  16  17  18  19  20  21  22  24  25 0
 3-21G
 ****
 27  28  29  32  34  39  40  41  42  43  44  45  46  47  48  49 0
 3-21G
 ****


