%nproc=1
%NoSave
%Mem=1900MB
#P OB98/GEN NMR

erre ene a

0 1
  C      -74.130     358.140      84.285
  O      -74.828     359.250      84.864
  P      -74.174     360.712      84.966
  C      -75.904     362.513      84.336
  O      -75.314     361.758      85.390
  C      -77.068     363.374      84.837
  O      -78.202     362.552      85.176
  C      -76.754     364.197      86.083
  O      -76.008     365.350      85.745
  C      -78.157     364.472      86.617
  O      -78.760     365.570      85.909
  C      -78.884     363.161      86.288
  N      -81.826     361.353      90.061
  C      -82.069     362.242      89.074
  N      -81.232     362.678      88.109
  C      -80.035     362.074      88.212
  C      -79.641     361.149      89.168
  C      -80.598     360.787      90.130
  N      -80.344     359.893      91.144
  N      -78.330     360.770      88.971
  C      -77.945     361.441      87.901
  N      -78.939     362.241      87.408
  O      -73.389     361.117      83.761
  O      -73.232     360.645      86.259
  H      -78.907     365.278      84.991
  H      -72.494     361.275      86.160
  H      -83.070     362.663      89.057
  H      -76.964     361.379      87.449
  H      -79.915     363.341      85.962
  H      -78.163     364.726      87.681
  H      -76.205     363.586      86.806
  H      -77.376     364.031      84.013
  H      -76.266     361.816      83.572
  H      -81.074     359.711      91.814
  H      -79.417     359.501      91.231
  H      -75.132     363.154      83.892
  P      -74.795     365.822      86.678
  C      -74.008     367.380      84.798
  O      -74.345     367.274      86.169
  O      -73.688     364.837      86.846
  O      -75.501     366.146      88.080
  H      -74.865     365.988      88.803
  H      -72.991     367.011      84.644
  H      -74.052     368.434      84.507
  H      -74.704     366.809      84.177
  H      -74.751     357.270      84.322
  H      -73.230     357.959      84.834
  H      -73.888     358.363      83.267

 3  4  5  6  7  8  9  10  11  12  22  25  29  30  31  32 0
 6-311+G(2d,p)
 ****
 33  36  37 0
 6-311+G(2d,p)
 ****
 1  2  13  14  15  16  17  18  19  20  21  23  24  26 0
 3-21G
 ****
 27  28  34  35  38  39  40  41  42  43  44  45  46  47  48 0
 3-21G
 ****


