%nproc=1
%NoSave
%Mem=1900MB
#P OB98/GEN NMR

erre ene a

0 1
  C     -132.352      88.821     -12.296
  O     -132.886      90.122     -12.131
  H     -132.682      88.426     -13.261
  H     -132.707      88.151     -11.509
  H     -131.259      88.856     -12.286
  P     -132.671      90.855     -10.722
  C     -131.753      92.933     -11.960
  O     -131.516      91.936     -10.972
  C     -130.522      93.093     -12.848
  O     -130.142      91.819     -13.407
  C     -130.756      94.015     -14.036
  O     -130.751      95.369     -13.632
  C     -129.619      93.599     -14.948
  O     -128.382      94.207     -14.551
  C     -129.582      92.070     -14.717
  N     -130.301      91.326     -15.746
  C     -129.513      90.557     -16.610
  O     -128.291      90.525     -16.478
  N     -130.137      89.860     -17.615
  C     -131.426      89.911     -17.737
  N     -131.980      89.198     -18.753
  C     -132.292      90.699     -16.840
  C     -131.669      91.379     -15.880
  O     -132.446      89.975      -9.531
  O     -133.984      91.757     -10.564
  H     -128.303      94.047     -13.590
  H     -134.688      91.258     -10.109
  H     -133.363      90.708     -16.976
  H     -132.232      91.982     -15.175
  H     -128.546      91.710     -14.693
  H     -129.810      93.883     -15.982
  H     -131.698      93.761     -14.531
  H     -129.692      93.450     -12.227
  H     -131.346      88.679     -19.351
  H     -131.962      93.868     -11.432
  H     -132.973      89.092     -18.892
  H     -132.627      92.674     -12.568
  P     -132.113      96.098     -13.205
  C     -130.789      97.044     -11.204
  O     -131.973      96.374     -11.628
  O     -133.366      95.406     -13.626
  O     -131.954      97.562     -13.836
  H     -132.081      97.548     -14.816
  H     -130.811      97.169     -10.142
  H     -130.734      98.003     -11.675
  H     -129.933      96.463     -11.477

 6  7  8  9  10  11  12  13  14  15  16  26  30  31  32  33  35 0
 6-311+G(2d,p)
 ****
 37  38 0
 6-311+G(2d,p)
 ****
 1  2  3  4  5  17  18  19  20  21  22  23  24  25 0
 3-21G
 ****
 27  28  29  34  36  39  40  41  42  43  44  45  46 0
 3-21G
 ****


