%nproc=1
%NoSave
%Mem=1900MB
#P OB98/GEN NMR

erre ene a

0 1
  C      395.813    -243.198     -31.072
  O      397.090    -243.676     -30.697
  H      395.113    -243.297     -30.236
  H      395.897    -242.142     -31.339
  H      395.442    -243.754     -31.939
  P      397.187    -245.224     -30.296
  C      397.517    -246.149     -32.698
  O      396.663    -246.050     -31.568
  C      397.511    -247.577     -33.238
  O      398.171    -248.460     -32.311
  C      396.125    -248.168     -33.458
  O      395.544    -247.721     -34.672
  C      396.454    -249.651     -33.512
  O      396.977    -249.986     -34.813
  C      397.559    -249.771     -32.451
  N      396.822    -253.799     -29.382
  C      397.404    -253.685     -30.597
  N      397.583    -252.576     -31.342
  C      397.100    -251.495     -30.704
  C      396.501    -251.449     -29.457
  C      396.357    -252.675     -28.783
  N      395.696    -252.785     -27.570
  N      396.120    -250.161     -29.141
  C      396.469    -249.443     -30.193
  N      397.070    -250.203     -31.157
  O      396.008    -245.388     -29.220
  O      398.505    -245.657     -29.744
  H      396.283    -249.763     -35.458
  H      396.384    -245.322     -28.323
  H      397.772    -254.609     -31.028
  H      396.304    -248.378     -30.297
  H      398.353    -250.464     -32.755
  H      395.588    -250.296     -33.338
  H      395.465    -247.980     -32.602
  H      398.087    -247.582     -34.174
  H      398.538    -245.874     -32.408
  H      395.260    -253.692     -27.429
  H      395.155    -251.973     -27.313
  H      397.164    -245.452     -33.464
  P      393.978    -247.368     -34.670
  C      394.016    -244.876     -35.358
  O      393.863    -245.809     -34.299
  O      393.454    -248.114     -33.351
  O      393.223    -247.808     -35.874
  H      392.727    -248.722     -33.587
  H      393.917    -243.882     -34.975
  H      393.263    -245.049     -36.098
  H      394.983    -244.993     -35.800

 6  7  8  9  10  11  12  13  14  15  25  28  32  33  34  35 0
 6-311+G(2d,p)
 ****
 36  39  40 0
 6-311+G(2d,p)
 ****
 1  2  3  4  5  16  17  18  19  20  21  22  23  24 0
 3-21G
 ****
 26  27  29  30  31  37  38  41  42  43  44  45  46  47  48 0
 3-21G
 ****


