%nproc=1
%NoSave
%Mem=1900MB
#P OB98/GEN NMR

erre ene a

0 1
  C      489.400    1358.585     -16.601
  O      489.154    1357.239     -16.263
  H      490.431    1358.829     -16.324
  H      488.722    1359.239     -16.059
  H      489.293    1358.727     -17.681
  P      487.689    1356.625     -16.508
  C      488.465    1355.324     -18.602
  O      487.586    1356.317     -18.081
  C      488.463    1355.376     -20.145
  O      488.660    1356.771     -20.520
  C      489.598    1354.552     -20.751
  O      489.149    1353.614     -21.735
  C      490.614    1355.594     -21.185
  O      491.462    1355.220     -22.251
  C      489.747    1356.830     -21.479
  N      490.445    1358.098     -21.374
  C      490.564    1358.856     -22.528
  O      490.131    1358.550     -23.637
  N      491.256    1360.047     -22.402
  C      491.808    1360.529     -21.245
  O      492.392    1361.608     -21.176
  C      491.655    1359.682     -20.057
  C      490.997    1358.520     -20.163
  O      486.569    1357.418     -15.938
  O      487.760    1355.173     -15.858
  H      492.259    1355.780     -22.193
  H      487.307    1355.175     -14.995
  H      491.359    1360.609     -23.231
  H      492.089    1360.010     -19.120
  H      490.863    1357.864     -19.316
  H      489.327    1356.753     -22.487
  H      491.272    1355.829     -20.324
  H      490.080    1353.911     -19.989
  H      487.488    1355.059     -20.513
  H      488.111    1354.344     -18.251
  H      489.484    1355.498     -18.227
  P      488.622    1352.150     -21.418
  C      486.142    1352.767     -21.978
  O      487.068    1352.248     -21.047
  O      489.495    1351.333     -20.521
  O      488.615    1351.443     -22.873
  H      488.823    1350.501     -22.717
  H      485.161    1352.752     -21.551
  H      486.154    1352.169     -22.865
  H      486.409    1353.774     -22.223

 6  7  8  9  10  11  12  13  14  15  16  26  31  32  33  34  35 0
 6-311+G(2d,p)
 ****
 36  37 0
 6-311+G(2d,p)
 ****
 1  2  3  4  5  17  18  19  20  21  22  23  24  25 0
 3-21G
 ****
 27  28  29  30  38  39  40  41  42  43  44  45 0
 3-21G
 ****


