%nproc=1
%NoSave
%Mem=1900MB
#P OB98/GEN NMR

erre ene a

0 1
  C      107.686     142.943     102.641
  O      107.225     143.501     103.853
  H      108.686     142.533     102.802
  H      107.747     143.716     101.871
  H      107.028     142.136     102.308
  P      105.708     144.008     103.942
  C      105.491     143.319     106.421
  O      105.433     144.378     105.476
  C      105.246     143.843     107.840
  O      106.451     144.530     108.297
  C      104.083     144.850     107.951
  O      103.528     144.705     109.266
  C      104.828     146.165     107.806
  O      104.036     147.276     108.140
  C      106.046     145.860     108.689
  N      107.158     146.794     108.565
  C      106.998     148.065     109.108
  O      105.987     148.455     109.689
  N      108.065     148.913     108.960
  C      109.249     148.616     108.352
  O      110.181     149.407     108.278
  C      109.355     147.261     107.791
  C      108.325     146.423     107.926
  O      104.688     143.119     103.313
  O      105.750     145.446     103.235
  H      105.398     145.374     102.327
  H      104.525     148.096     107.912
  H      107.969     149.836     109.351
  H      110.277     146.996     107.292
  H      108.377     145.414     107.531
  H      105.741     145.805     109.739
  H      105.127     146.311     106.765
  H      103.301     144.686     107.205
  H      105.094     142.989     108.511
  H      106.485     142.863     106.363
  H      104.739     142.567     106.163
  P      102.177     143.893     109.571
  C      102.662     143.094     111.985
  O      101.901     143.961     111.152
  O      102.167     142.506     109.019
  O      101.001     144.775     108.937
  H      100.249     144.199     108.708
  H      102.379     143.242     113.006
  H      103.703     143.310     111.868
  H      102.476     142.078     111.707

 6  7  8  9  10  11  12  13  14  15  16  27  31  32  33  34  35 0
 6-311+G(2d,p)
 ****
 36  37 0
 6-311+G(2d,p)
 ****
 1  2  3  4  5  17  18  19  20  21  22  23  24  25 0
 3-21G
 ****
 26  28  29  30  38  39  40  41  42  43  44  45 0
 3-21G
 ****


