%nproc=1
%NoSave
%Mem=1900MB
#P OB98/GEN NMR

erre ene a

0 1
  C      359.657     255.459    -381.010
  O      360.392     255.660    -379.821
  H      359.494     254.389    -381.143
  H      360.216     255.840    -381.867
  H      358.684     255.957    -380.944
  P      360.725     257.181    -379.410
  C      359.824     256.655    -377.024
  O      360.901     257.152    -377.811
  C      360.282     256.431    -375.580
  O      360.757     255.070    -375.437
  C      361.408     257.371    -375.143
  O      361.148     257.841    -373.819
  C      362.655     256.496    -375.164
  O      363.654     256.963    -374.269
  C      362.067     255.115    -374.842
  N      362.918     254.031    -375.357
  C      363.739     253.389    -374.427
  O      363.744     253.741    -373.243
  N      364.581     252.399    -374.867
  C      364.646     252.115    -376.132
  N      365.519     251.138    -376.510
  C      363.831     252.803    -377.154
  C      362.994     253.741    -376.700
  O      359.322     257.922    -379.624
  O      361.859     257.807    -380.152
  H      363.327     256.839    -373.352
  H      359.426     258.905    -379.610
  H      363.923     252.543    -378.199
  H      362.356     254.298    -377.378
  H      361.956     254.984    -373.761
  H      363.077     256.499    -376.178
  H      361.532     258.225    -375.804
  H      359.411     256.528    -374.921
  H      366.064     250.701    -375.783
  H      359.475     255.711    -377.455
  H      365.665     250.857    -377.467
  H      359.007     257.381    -377.034
  P      361.662     259.332    -373.491
  C      360.020     259.529    -371.499
  O      361.366     259.621    -371.938
  O      360.623     260.269    -374.264
  O      363.081     259.581    -373.915
  H      360.992     260.568    -375.115
  H      359.971     259.745    -370.452
  H      359.654     258.540    -371.677
  H      359.421     260.234    -372.037

 6  7  8  9  10  11  12  13  14  15  16  26  30  31  32  33  35 0
 6-311+G(2d,p)
 ****
 37  38 0
 6-311+G(2d,p)
 ****
 1  2  3  4  5  17  18  19  20  21  22  23  24  25 0
 3-21G
 ****
 27  28  29  34  36  39  40  41  42  43  44  45  46 0
 3-21G
 ****


