%nproc=1
%NoSave
%Mem=1900MB
#P OB98/GEN NMR

erre ene a

0 1
  C      209.277    -816.039     141.839
  O      208.554    -816.763     142.839
  P      209.195    -817.332     144.185
  C      207.515    -816.398     145.960
  O      208.804    -816.347     145.380
  C      206.579    -815.273     145.475
  O      206.251    -815.493     144.069
  C      205.261    -815.301     146.232
  O      205.160    -814.668     147.496
  C      204.225    -814.828     145.223
  O      203.974    -813.426     145.303
  C      204.864    -815.179     143.869
  N      200.752    -816.774     141.271
  C      200.991    -815.544     141.850
  N      200.006    -814.635     141.778
  N      202.106    -815.236     142.470
  C      202.983    -816.271     142.549
  C      202.849    -817.536     142.026
  C      201.632    -817.847     141.297
  O      201.374    -818.912     140.756
  N      203.935    -818.319     142.326
  C      204.713    -817.537     143.039
  N      204.183    -816.277     143.198
  O      210.625    -817.754     144.089
  O      208.320    -818.654     144.483
  H      203.332    -813.189     144.612
  H      208.923    -819.296     144.913
  H      199.888    -816.948     140.790
  H      205.664    -817.825     143.462
  H      204.828    -814.323     143.188
  H      203.261    -815.324     145.395
  H      199.081    -814.842     141.430
  H      205.017    -816.351     146.419
  H      200.089    -813.810     142.389
  H      207.089    -814.301     145.508
  H      207.647    -816.335     147.043
  H      207.054    -817.368     145.767
  P      205.075    -815.405     148.914
  C      207.137    -814.526     150.171
  O      206.570    -815.613     149.450
  O      204.613    -816.895     148.557
  O      204.133    -814.768     149.896
  H      204.272    -817.341     149.362
  H      208.218    -814.657     150.214
  H      206.745    -814.518     151.194
  H      206.908    -813.567     149.686
  H      208.614    -815.773     141.042
  H      210.067    -816.651     141.457
  H      209.690    -815.151     142.270

 3  4  5  6  7  8  9  10  11  12  23  26  30  31 0
 6-311+G(2d,p)
 ****
 33  35  36  37  38 0
 6-311+G(2d,p)
 ****
 1  2  13  14  15  16  17  18  19  20  21  22  24  25 0
 3-21G
 ****
 27  28  29  32  34  39  40  41  42  43  44  45  46  47  48  49 0
 3-21G
 ****


