%nproc=1
%NoSave
%Mem=1900MB
#P OB98/GEN NMR

erre ene a

0 1
  C       39.939     177.224     -69.531
  O       41.078     177.495     -68.708
  P       42.382     176.585     -68.960
  C       43.485     176.265     -71.298
  O       43.129     177.165     -70.258
  C       43.857     177.024     -72.570
  O       42.718     177.733     -73.101
  C       44.929     178.090     -72.374
  O       46.232     177.521     -72.337
  C       44.742     178.930     -73.626
  O       45.432     178.326     -74.733
  C       43.219     178.871     -73.844
  N       40.099     182.647     -75.160
  C       40.594     181.602     -75.918
  N       40.177     181.542     -77.203
  N       41.421     180.698     -75.460
  C       41.729     180.872     -74.149
  C       41.308     181.863     -73.294
  C       40.414     182.872     -73.822
  O       39.970     183.837     -73.206
  N       41.827     181.698     -72.033
  C       42.539     180.589     -72.119
  N       42.525     180.059     -73.384
  O       41.760     175.204     -69.480
  O       43.231     176.397     -67.750
  H       46.282     177.982     -74.390
  H       42.363     174.467     -69.271
  H       39.469     183.316     -75.564
  H       43.079     180.134     -71.298
  H       42.966     178.710     -74.899
  H       45.143     179.946     -73.520
  H       39.484     182.160     -77.598
  H       44.720     178.697     -71.481
  H       40.502     180.761     -77.761
  H       44.189     176.293     -73.319
  H       42.650     175.593     -71.507
  H       44.319     175.638     -70.957
  P       46.973     177.479     -70.913
  C       46.010     176.136     -68.912
  O       46.517     176.101     -70.232
  O       46.208     178.604     -70.068
  O       48.445     177.731     -70.977
  H       46.801     178.984     -69.399
  H       45.322     176.972     -68.773
  H       46.841     176.219     -68.203
  H       45.472     175.201     -68.719
  H       39.143     177.890     -69.269
  H       39.622     176.213     -69.380
  H       40.200     177.367     -70.559

 3  4  5  6  7  8  9  10  11  12  23  26  30  31  33  0
 6-311+G(2d,p)
 ****
 35  36  37  38 0
 6-311+G(2d,p)
 ****
 1  2  13  14  15  16  17  18  19  20  21  22  24  25  27  28  29 0
 3-21G
 ****
 32  34  39  40  41  42  43  44  45  46  47  48  49 0
 3-21G
 ****


