%nproc=1
%NoSave
%Mem=1900MB
#P OB98/GEN NMR

erre ene a

0 1
  C      -69.505     -26.781     174.151
  O      -69.088     -25.446     173.980
  H      -70.242     -27.017     173.378
  H      -69.979     -26.912     175.127
  H      -68.660     -27.466     174.049
  P      -68.032     -24.814     175.011
  C      -66.087     -23.218     174.502
  O      -67.463     -23.497     174.279
  C      -65.482     -22.459     173.321
  O      -65.392     -23.342     172.170
  C      -66.295     -21.227     172.896
  O      -65.423     -20.110     172.718
  C      -66.884     -21.634     171.554
  O      -67.205     -20.520     170.726
  C      -65.785     -22.562     171.027
  N      -66.250     -23.388     169.922
  C      -66.718     -22.707     168.794
  O      -66.716     -21.475     168.770
  N      -67.226     -23.429     167.748
  C      -67.306     -24.720     167.836
  N      -67.847     -25.375     166.775
  C      -66.849     -25.480     169.019
  C      -66.334     -24.758     170.013
  O      -66.991     -25.765     175.498
  O      -68.925     -24.203     176.189
  H      -67.740     -19.886     171.252
  H      -68.371     -24.121     177.000
  H      -66.943     -26.555     169.046
  H      -65.974     -25.228     170.922
  H      -64.913     -21.986     170.691
  H      -67.806     -22.206     171.722
  H      -67.073     -20.960     173.610
  H      -64.450     -22.184     173.577
  H      -68.153     -24.815     165.988
  H      -65.559     -24.166     174.658
  H      -67.982     -26.373     166.739
  H      -66.000     -22.604     175.403
  P      -65.000     -19.321     174.050
  C      -62.907     -18.030     174.879
  O      -63.589     -18.607     173.776
  O      -64.647     -20.496     175.077
  O      -66.073     -18.431     174.580
  H      -65.325     -20.538     175.777
  H      -61.989     -17.595     174.543
  H      -62.698     -18.788     175.605
  H      -63.520     -17.272     175.321

 6  7  8  9  10  11  12  13  14  15  16  26  30  31  32  33  35 0
 6-311+G(2d,p)
 ****
 37  38 0
 6-311+G(2d,p)
 ****
 1  2  3  4  5  17  18  19  20  21  22  23  24  25 0
 3-21G
 ****
 27  28  29  34  36  39  40  41  42  43  44  45  46 0
 3-21G
 ****


