%nproc=1
%NoSave
%Mem=1900MB
#P OB98/GEN NMR

erre ene a

0 1
  C     -891.210    -340.129      66.798
  O     -891.660    -338.836      67.257
  P     -891.840    -338.474      68.801
  C     -893.990    -339.813      69.319
  O     -892.590    -339.662      69.564
  C     -894.710    -340.525      70.453
  O     -894.530    -339.781      71.717
  C     -896.230    -340.697      70.247
  O     -896.560    -341.993      70.780
  C     -896.810    -339.575      71.093
  O     -898.180    -339.765      71.441
  C     -895.830    -339.640      72.307
  N     -895.900    -338.505      73.187
  C     -896.830    -338.551      74.258
  O     -897.610    -339.482      74.396
  N     -896.880    -337.517      75.147
  C     -896.070    -336.492      74.994
  N     -896.140    -335.501      75.923
  C     -895.070    -336.393      73.895
  C     -895.050    -337.421      73.059
  O     -892.480    -337.143      69.039
  O     -890.350    -338.502      69.425
  H     -890.280    -337.804      70.099
  H     -898.530    -338.924      71.765
  H     -894.430    -335.535      73.819
  H     -894.350    -337.436      72.226
  H     -896.040    -340.575      72.861
  H     -896.710    -338.644      70.559
  H     -896.530    -340.654      69.204
  H     -894.220    -341.489      70.624
  H     -896.820    -335.596      76.681
  H     -894.120    -340.402      68.393
  H     -895.560    -334.659      75.913
  H     -894.410    -338.818      69.147
  P     -896.960    -343.186      69.785
  C     -899.440    -342.590      69.205
  O     -898.080    -342.637      68.776
  O     -897.800    -344.155      70.729
  O     -895.820    -343.943      69.180
  H     -897.760    -345.075      70.381
  H     -899.860    -341.641      68.928
  H     -899.530    -342.711      70.304
  H     -900.000    -343.388      68.721
  H     -891.168    -340.133      65.729
  H     -891.892    -340.883      67.131
  H     -890.236    -340.329      67.194

 3  4  5  6  7  8  9  10  11  12  13  24  27  28  29  30  32 0
 6-311+G(2d,p)
 ****
 34  35 0
 6-311+G(2d,p)
 ****
 1  2  14  15  16  17  18  19  20  21  22  23  25  26 0
 3-21G
 ****
 31  33  36  37  38  39  40  41  42  43  44  45  46 0
 3-21G
 ****


