%nproc=1
%NoSave
%Mem=1900MB
#P OB98/GEN NMR

erre ene a

0 1
  C      528.392    1330.552     884.640
  O      528.008    1329.362     883.922
  P      527.001    1329.496     882.693
  C      524.909    1329.925     884.186
  O      525.718    1330.364     883.109
  C      523.418    1330.336     883.981
  O      522.826    1329.534     882.893
  C      522.514    1330.123     885.218
  O      521.523    1331.146     885.183
  C      521.880    1328.775     884.945
  O      520.697    1328.544     885.682
  C      521.651    1328.881     883.417
  N      521.442    1327.587     882.762
  C      520.215    1326.962     882.990
  O      519.346    1327.376     883.743
  N      520.030    1325.777     882.282
  C      520.935    1325.161     881.480
  O      520.731    1324.089     880.919
  C      522.223    1325.856     881.309
  C      522.414    1327.030     881.952
  O      526.387    1328.014     882.608
  O      527.608    1329.873     881.385
  H      520.331    1327.688     885.398
  H      526.372    1327.713     881.690
  H      519.155    1325.309     882.411
  H      522.978    1325.411     880.657
  H      523.342    1327.577     881.832
  H      520.799    1329.539     883.222
  H      522.603    1327.983     885.184
  H      523.089    1330.148     886.178
  H      523.397    1331.386     883.655
  H      525.259    1330.344     885.125
  H      524.976    1328.827     884.261
  P      521.872    1332.575     885.858
  C      521.053    1332.425     888.357
  O      522.134    1332.313     887.432
  O      520.450    1333.274     885.853
  O      522.923    1333.370     885.129
  H      519.723    1332.684     886.124
  H      520.147    1332.017     887.949
  H      520.918    1333.476     888.583
  H      521.331    1331.897     889.263
  H      529.066    1330.291     885.429
  H      527.521    1331.015     885.054
  H      528.874    1331.233     883.970

 3  4  5  6  7  8  9  10  11  12  13  23  28  29  30  31  32 0
 6-311+G(2d,p)
 ****
 33  34 0
 6-311+G(2d,p)
 ****
 1  2  14  15  16  17  18  19  20  21  22  24  25  26 0
 3-21G
 ****
 27  35  36  37  38  39  40  41  42  43  44  45 0
 3-21G
 ****


