%nproc=1
%NoSave
%Mem=1900MB
#P OB98/GEN NMR

erre ene a

0 1
  C      195.955     888.576     285.605
  O      196.751     889.465     286.356
  P      196.152     890.131     287.684
  C      194.653     892.128     288.290
  O      195.202     891.345     287.242
  C      194.330     893.543     287.795
  O      193.370     893.483     286.715
  C      193.692     894.435     288.856
  O      194.665     894.905     289.772
  C      193.072     895.515     287.992
  O      194.051     896.496     287.601
  C      192.613     894.707     286.743
  N      188.037     895.983     284.849
  C      189.264     896.576     284.747
  N      190.413     896.193     285.328
  C      190.245     895.094     286.087
  C      189.049     894.400     286.296
  C      187.920     894.873     285.618
  N      186.690     894.244     285.652
  N      189.266     893.333     287.158
  C      190.561     893.397     287.463
  N      191.190     894.403     286.773
  O      197.156     890.461     288.749
  O      195.108     889.037     288.217
  H      193.592     897.142     287.021
  H      195.369     888.742     289.116
  H      189.305     897.468     284.133
  H      191.072     892.730     288.140
  H      192.826     895.243     285.814
  H      192.260     896.056     288.490
  H      192.902     893.892     289.378
  H      195.254     893.991     287.417
  H      195.378     892.187     289.113
  H      185.992     894.590     285.011
  H      186.653     893.269     285.965
  H      193.744     891.630     288.665
  P      194.255     895.211     291.291
  C      192.544     896.721     292.463
  O      192.938     896.128     291.239
  O      195.361     895.700     292.178
  O      193.680     893.798     291.814
  H      193.886     893.705     292.767
  H      192.047     895.969     293.086
  H      191.858     897.546     292.260
  H      193.412     897.122     293.002
  H      196.510     888.229     284.758
  H      195.073     889.082     285.271
  H      195.678     887.742     286.216

 3  4  5  6  7  8  9  10  11  12  22  25  29  30  31  32 0
 6-311+G(2d,p)
 ****
 33  36  37 0
 6-311+G(2d,p)
 ****
 1  2  13  14  15  16  17  18  19  20  21  23  24  26 0
 3-21G
 ****
 27  28  34  35  38  39  40  41  42  43  44  45  46  47  48 0
 3-21G
 ****


