%nproc=1
%NoSave
%Mem=1900MB
#P OB98/GEN NMR

erre ene a

0 1
  C     -379.539    -893.000     217.695
  O     -380.926    -892.744     217.687
  H     -379.215    -893.202     216.672
  H     -379.318    -893.876     218.312
  H     -378.980    -892.131     218.066
  P     -381.601    -892.107     218.989
  C     -381.802    -889.646     218.229
  O     -382.489    -890.860     218.494
  C     -382.719    -888.651     217.509
  O     -383.026    -889.165     216.181
  C     -384.056    -888.477     218.243
  O     -384.639    -887.194     218.019
  C     -384.934    -889.536     217.590
  O     -386.325    -889.262     217.706
  C     -384.428    -889.500     216.151
  N     -387.722    -892.965     214.364
  C     -387.957    -891.902     215.216
  N     -389.231    -891.723     215.631
  N     -387.014    -891.079     215.618
  C     -385.770    -891.418     215.180
  C     -385.424    -892.471     214.368
  C     -386.473    -893.334     213.883
  O     -386.317    -894.317     213.166
  N     -384.070    -892.495     214.142
  C     -383.595    -891.477     214.823
  N     -384.599    -890.767     215.444
  O     -380.381    -891.386     219.736
  O     -382.306    -893.067     219.896
  H     -386.786    -889.768     217.005
  H     -380.575    -891.265     220.673
  H     -388.492    -893.539     214.065
  H     -382.557    -891.177     214.875
  H     -384.934    -888.740     215.568
  H     -384.741    -890.495     218.082
  H     -389.934    -892.438     215.503
  H     -383.974    -888.649     219.318
  H     -389.351    -891.149     216.473
  H     -382.193    -887.696     217.363
  H     -380.932    -889.886     217.610
  H     -381.425    -889.209     219.163
  P     -385.518    -886.544     219.194
  C     -385.202    -883.947     218.766
  O     -386.019    -885.092     218.745
  O     -384.460    -886.237     220.342
  O     -386.640    -887.415     219.662
  H     -384.656    -886.782     221.126
  H     -385.762    -883.103     218.422
  H     -384.358    -884.100     218.127
  H     -384.865    -883.768     219.766

 6  7  8  9  10  11  12  13  14  15  26  29  33  34 0
 6-311+G(2d,p)
 ****
 36  38  39  40  41 0
 6-311+G(2d,p)
 ****
 1  2  3  4  5  16  17  18  19  20  21  22  23  24  25 0
 3-21G
 ****
 27  28  30  31  32  35  37  42  43  44  45  46  47 0
 3-21G
 ****
 48  49 0
 3-21G
 ****


