%nproc=1
%NoSave
%Mem=1900MB
#P OB98/GEN NMR

erre ene a

0 1
  C     -113.639     -21.608     112.946
  O     -114.232     -20.774     111.972
  H     -112.634     -21.239     113.162
  H     -113.565     -22.631     112.569
  H     -114.226     -21.594     113.869
  P     -115.761     -21.070     111.591
  C     -116.932     -22.171     109.543
  O     -115.756     -21.576     110.066
  C     -117.183     -21.662     108.122
  O     -117.306     -20.214     108.164
  C     -116.049     -21.998     107.148
  O     -116.606     -22.287     105.863
  C     -115.250     -20.708     107.086
  O     -114.481     -20.567     105.899
  C     -116.369     -19.668     107.214
  N     -115.876     -18.367     107.662
  C     -116.114     -17.273     106.838
  O     -116.772     -17.308     105.799
  N     -115.556     -16.089     107.249
  C     -114.784     -15.904     108.359
  O     -114.293     -14.823     108.662
  C     -114.561     -17.099     109.186
  C     -115.107     -18.257     108.804
  O     -116.406     -19.609     111.487
  O     -116.502     -21.958     112.533
  H     -116.765     -19.331     112.352
  H     -114.036     -21.423     105.724
  H     -115.721     -15.284     106.663
  H     -113.947     -16.993     110.071
  H     -114.949     -19.160     109.385
  H     -116.896     -19.555     106.260
  H     -114.566     -20.648     107.941
  H     -115.437     -22.838     107.481
  H     -118.142     -22.058     107.766
  H     -117.783     -21.905     110.178
  H     -116.816     -23.261     109.540
  P     -116.687     -23.828     105.422
  C     -115.276     -25.320     103.804
  O     -115.408     -24.086     104.486
  O     -117.922     -23.803     104.409
  O     -116.833     -24.758     106.580
  H     -117.964     -22.995     103.868
  H     -114.372     -25.317     103.232
  H     -116.111     -25.457     103.149
  H     -115.245     -26.119     104.515

 6  7  8  9  10  11  12  13  14  15  16  27  31  32  33  34  35 0
 6-311+G(2d,p)
 ****
 36  37 0
 6-311+G(2d,p)
 ****
 1  2  3  4  5  17  18  19  20  21  22  23  24  25 0
 3-21G
 ****
 26  28  29  30  38  39  40  41  42  43  44  45 0
 3-21G
 ****


