%nproc=1
%NoSave
%Mem=1900MB
#P OB98/GEN NMR

erre ene a

0 1
  C       57.450    -323.522    -158.985
  O       58.280    -323.174    -160.075
  H       57.144    -322.604    -158.475
  H       58.004    -324.142    -158.277
  H       56.556    -324.047    -159.328
  P       58.760    -324.324    -161.081
  C       60.861    -322.885    -161.498
  O       59.829    -323.665    -162.083
  C       61.609    -322.084    -162.569
  O       62.191    -323.009    -163.522
  C       60.715    -321.113    -163.345
  O       61.451    -319.921    -163.626
  C       60.425    -321.856    -164.634
  O       60.130    -320.970    -165.714
  C       61.714    -322.651    -164.834
  N       61.021    -324.355    -169.539
  C       61.311    -323.086    -169.087
  N       61.414    -322.118    -170.024
  N       61.483    -322.785    -167.826
  C       61.372    -323.857    -167.001
  C       61.088    -325.164    -167.328
  C       60.881    -325.476    -168.726
  O       60.606    -326.580    -169.185
  N       61.042    -325.956    -166.208
  C       61.295    -325.131    -165.209
  N       61.488    -323.844    -165.637
  O       57.655    -325.072    -161.755
  O       59.658    -325.292    -160.180
  H       59.326    -320.466    -165.459
  H       59.181    -326.116    -159.968
  H       60.888    -324.530    -170.523
  H       61.344    -325.409    -164.166
  H       62.493    -322.068    -165.340
  H       59.566    -322.522    -164.493
  H       61.318    -322.282    -171.015
  H       59.805    -320.862    -162.799
  H       61.658    -321.180    -169.720
  H       62.440    -321.555    -162.088
  H       61.558    -323.562    -160.992
  H       60.424    -322.208    -160.755
  P       60.700    -318.506    -163.551
  C       61.035    -317.551    -165.911
  O       61.426    -317.479    -164.547
  O       60.457    -317.980    -162.172
  O       59.312    -318.800    -164.303
  H       58.604    -318.274    -163.876
  H       61.581    -316.825    -166.477
  H       59.987    -317.352    -165.993
  H       61.243    -318.530    -166.291

 6  7  8  9  10  11  12  13  14  15  26  29  33  34 0
 6-311+G(2d,p)
 ****
 36  38  39  40  41 0
 6-311+G(2d,p)
 ****
 1  2  3  4  5  16  17  18  19  20  21  22  23  24  25 0
 3-21G
 ****
 27  28  30  31  32  35  37  42  43  44  45  46  47 0
 3-21G
 ****
 48  49 0
 3-21G
 ****


