%nproc=1
%NoSave
%Mem=1900MB
#P OB98/GEN NMR

erre ene a

0 1
  C      168.648     245.735     130.365
  O      169.121     246.650     131.332
  H      167.626     245.447     130.624
  H      169.274     244.838     130.359
  H      168.647     246.194     129.374
  P      170.599     247.232     131.112
  C      171.750     245.286     132.396
  O      171.591     245.971     131.160
  C      173.203     244.848     132.560
  O      173.554     243.938     131.492
  C      174.213     245.988     132.478
  O      174.294     246.715     133.692
  C      175.488     245.229     132.138
  O      176.109     244.688     133.311
  C      174.971     244.090     131.248
  N      177.017     242.180     126.989
  C      176.872     241.668     128.231
  N      176.295     242.238     129.310
  C      175.832     243.461     129.006
  C      175.914     244.117     127.790
  C      176.538     243.422     126.741
  N      176.720     243.957     125.489
  N      175.364     245.381     127.884
  C      174.951     245.481     129.130
  N      175.208     244.345     129.842
  O      170.891     247.997     132.490
  O      170.762     248.127     129.930
  H      176.277     245.440     133.910
  H      170.669     248.942     132.392
  H      177.276     240.668     128.377
  H      174.473     246.354     129.563
  H      175.444     243.130     131.488
  H      176.219     245.877     131.653
  H      173.964     246.656     131.643
  H      173.301     244.311     133.511
  H      171.105     244.401     132.406
  H      171.454     245.953     133.213
  H      177.197     243.410     124.791
  H      176.463     244.923     125.326
  P      174.145     248.307     133.642
  C      176.676     248.868     133.471
  O      175.406     248.890     132.840
  O      174.417     248.750     135.155
  O      172.822     248.793     133.148
  H      173.573     248.924     135.616
  H      177.408     249.288     132.813
  H      176.942     247.858     133.702
  H      176.636     249.442     134.373

 6  7  8  9  10  11  12  13  14  15  25  28  32  33  34  35 0
 6-311+G(2d,p)
 ****
 36  37  40 0
 6-311+G(2d,p)
 ****
 1  2  3  4  5  16  17  18  19  20  21  22  23  24 0
 3-21G
 ****
 26  27  29  30  31  38  39 41  42  43  44  45  46  47  48 0
 3-21G
 ****


