%nproc=1
%NoSave
%Mem=1900MB
#P OB98/GEN NMR

erre ene a

0 1
  C     -408.965    -719.708     114.529
  O     -408.196    -720.885     114.708
  P     -408.596    -722.201     113.855
  C     -406.205    -722.730     112.945
  O     -407.521    -722.272     112.661
  C     -405.327    -722.687     111.674
  O     -405.842    -723.649     110.707
  C     -405.263    -721.307     110.994
  O     -403.910    -721.157     110.489
  C     -406.254    -721.456     109.856
  O     -405.978    -720.522     108.802
  C     -406.012    -722.924     109.461
  N     -407.117    -723.490     108.679
  C     -407.235    -723.039     107.371
  O     -406.518    -722.155     106.880
  N     -408.250    -723.602     106.630
  C     -409.188    -724.490     107.093
  O     -410.076    -724.971     106.412
  C     -409.080    -724.835     108.537
  C     -408.064    -724.306     109.231
  O     -409.925    -721.676     113.138
  O     -408.733    -723.423     114.692
  H     -409.907    -720.729     112.882
  H     -406.075    -719.606     109.147
  H     -408.325    -723.329     105.670
  H     -409.838    -725.470     108.956
  H     -407.979    -724.527     110.303
  H     -405.089    -723.027     108.879
  H     -407.284    -721.298     110.210
  H     -405.508    -720.490     111.675
  H     -404.307    -723.004     111.967
  H     -406.223    -723.768     113.318
  H     -405.781    -722.097     113.750
  P     -402.968    -720.079     111.191
  C     -401.803    -721.547     113.024
  O     -402.736    -720.538     112.723
  O     -403.979    -718.843     111.337
  O     -401.734    -719.722     110.410
  H     -404.842    -719.097     111.698
  H     -401.628    -721.531     114.117
  H     -400.845    -721.353     112.532
  H     -402.173    -722.515     112.734
  H     -408.580    -718.932     115.157
  H     -409.984    -719.905     114.789
  H     -408.911    -719.399     113.506

 3  4  5  6  7  8  9  10  11  12  13  24  28  29  30  31  32 0
 6-311+G(2d,p)
 ****
 33  34 0
 6-311+G(2d,p)
 ****
 1  2  14  15  16  17  18  19  20  21  22  23  25  26  27 0
 3-21G
 ****
 35  36  37  38  39  40  41  42  43  44  45 0
 3-21G
 ****


