%nproc=1
%NoSave
%Mem=1900MB
#P OB98/GEN NMR

erre ene a

0 1
  C     -140.888    -232.032      35.774
  O     -140.122    -231.405      34.763
  H     -141.458    -231.264      36.306
  H     -140.230    -232.541      36.487
  H     -141.586    -232.743      35.328
  P     -139.178    -232.361      33.881
  C     -137.202    -230.841      34.596
  O     -137.715    -232.166      34.515
  C     -136.515    -230.615      35.939
  O     -137.333    -231.123      37.011
  C     -135.157    -231.295      36.075
  O     -134.142    -230.503      35.486
  C     -135.011    -231.356      37.592
  O     -134.553    -230.080      38.081
  C     -136.457    -231.610      38.061
  N     -138.992    -234.802      41.183
  C     -138.717    -233.485      41.281
  N     -137.994    -232.713      40.444
  C     -137.530    -233.432      39.406
  C     -137.727    -234.791      39.176
  C     -138.502    -235.484      40.122
  N     -138.775    -236.834      40.018
  N     -137.099    -235.187      38.011
  C     -136.588    -234.078      37.522
  N     -136.793    -232.994      38.344
  O     -139.287    -232.188      32.400
  O     -139.606    -233.801      34.434
  H     -134.323    -230.203      39.022
  H     -139.724    -233.778      35.397
  H     -139.134    -232.985      42.150
  H     -136.082    -233.993      36.567
  H     -136.688    -231.041      38.973
  H     -134.286    -232.103      37.911
  H     -135.175    -232.321      35.674
  H     -136.418    -229.528      36.090
  H     -138.015    -230.112      34.466
  H     -139.167    -237.283      40.832
  H     -138.299    -237.360      39.299
  H     -136.487    -230.708      33.773
  P     -133.504    -230.893      34.069
  C     -131.148    -230.413      34.996
  O     -132.008    -231.383      34.407
  O     -133.616    -229.835      33.023
  O     -134.242    -232.250      33.661
  H     -134.118    -232.427      32.705
  H     -130.188    -230.849      35.175
  H     -131.567    -230.081      35.923
  H     -131.043    -229.580      34.333

 6  7  8  9  10  11  12  13  14  15  25  28  32  33  34  35 0
 6-311+G(2d,p)
 ****
 36  39  40 0
 6-311+G(2d,p)
 ****
 1  2  3  4  5  16  17  18  19  20  21  22  23  24 0
 3-21G
 ****
 26  27  29  30  31  37  38  41  42  43  44  45  46  47 0
 3-21G
 ****
 48 0
 3-21G
 ****


