%nproc=1
%NoSave
%Mem=1900MB
#P OB98/GEN NMR

erre ene a

0 1
  C      -33.967     -53.686     -40.254
  O      -35.381     -53.744     -40.272
  P      -36.184     -54.139     -38.944
  C      -36.178     -56.623     -39.720
  O      -35.923     -55.698     -38.685
  C      -36.695     -57.954     -39.159
  O      -35.668     -58.503     -38.298
  C      -37.947     -57.842     -38.296
  O      -38.547     -59.135     -38.195
  C      -37.367     -57.446     -36.957
  O      -38.260     -57.714     -35.880
  C      -36.032     -58.234     -36.924
  N      -34.967     -57.468     -36.251
  C      -35.169     -57.153     -34.911
  O      -36.141     -57.549     -34.269
  N      -34.259     -56.296     -34.354
  C      -33.223     -55.707     -35.018
  O      -32.617     -54.726     -34.604
  C      -32.925     -56.260     -36.348
  C      -33.813     -57.085     -36.908
  O      -37.710     -54.082     -39.423
  O      -35.936     -53.253     -37.773
  H      -39.121     -57.294     -36.113
  H      -38.104     -53.221     -39.189
  H      -34.486     -55.955     -33.427
  H      -32.025     -55.929     -36.848
  H      -33.646     -57.468     -37.911
  H      -36.145     -59.189     -36.397
  H      -37.165     -56.367     -36.958
  H      -38.678     -57.112     -38.657
  H      -36.856     -58.658     -39.984
  H      -35.263     -56.778     -40.299
  H      -36.920     -56.218     -40.417
  P      -40.138     -59.212     -38.009
  C      -40.088     -59.942     -35.547
  O      -40.424     -58.915     -36.459
  O      -40.804     -60.425     -38.565
  O      -40.650     -57.871     -38.724
  H      -41.598     -57.952     -38.934
  H      -39.830     -59.490     -34.587
  H      -39.238     -60.531     -35.902
  H      -40.952     -60.599     -35.410
  H      -33.609     -53.408     -41.223
  H      -33.574     -54.646     -39.991
  H      -33.649     -52.961     -39.535

 3  4  5  6  7  8  9  10  11  12  13  23  28  29  30  31  32 0
 6-311+G(2d,p)
 ****
 33  34 0
 6-311+G(2d,p)
 ****
 1  2  14  15  16  17  18  19  20  21  22  24  25  26  27 0
 3-21G
 ****
 35  36  37  38  39  40  41  42  43  44  45 0
 3-21G
 ****


