%nproc=1
%NoSave
%Mem=1900MB
#P OB98/GEN NMR

erre ene a

0 1
  C      -63.536    -188.181     419.194
  O      -62.242    -188.730     419.117
  H      -64.259    -188.952     418.901
  H      -63.639    -187.338     418.505
  H      -63.761    -187.861     420.215
  P      -60.974    -187.803     419.455
  C      -60.091    -189.352     421.306
  O      -59.845    -188.810     420.010
  C      -59.501    -190.756     421.429
  O      -60.393    -191.718     420.802
  C      -58.119    -190.915     420.772
  O      -57.231    -191.585     421.666
  C      -58.398    -191.791     419.561
  O      -57.247    -192.509     419.118
  C      -59.552    -192.644     420.086
  N      -60.264    -193.327     419.012
  C      -59.725    -194.545     418.589
  O      -58.707    -194.994     419.119
  N      -60.315    -195.201     417.538
  C      -61.330    -194.666     416.932
  N      -61.848    -195.352     415.881
  C      -61.912    -193.364     417.327
  C      -61.341    -192.759     418.367
  O      -61.271    -186.636     420.338
  O      -60.389    -187.374     418.027
  H      -57.541    -193.224     418.506
  H      -59.859    -186.552     418.134
  H      -62.755    -192.962     416.788
  H      -61.702    -191.803     418.736
  H      -59.192    -193.398     420.802
  H      -58.744    -191.166     418.726
  H      -57.675    -189.959     420.485
  H      -59.463    -191.022     422.495
  H      -61.414    -196.235     415.638
  H      -61.176    -189.377     421.471
  H      -62.623    -195.019     415.318
  H      -59.623    -188.700     422.046
  P      -55.662    -191.507     421.306
  C      -54.793    -190.273     423.411
  O      -54.839    -191.484     422.677
  O      -55.496    -190.014     420.728
  O      -55.228    -192.535     420.308
  H      -55.326    -190.050     419.768
  H      -54.210    -190.415     424.297
  H      -55.787    -189.982     423.681
  H      -54.348    -189.508     422.810

 6  7  8  9  10  11  12  13  14  15  16  26  30  31  32  33  35 0
 6-311+G(2d,p)
 ****
 37  38 0
 6-311+G(2d,p)
 ****
 1  2  3  4  5  17  18  19  20  21  22  23  24  25 0
 3-21G
 ****
 27  28  29  34  36  39  40  41  42  43  44  45  46 0
 3-21G
 ****


