%nproc=1
%NoSave
%Mem=1900MB
#P OB98/GEN NMR

erre ene a

0 1
  C     -163.379     242.474     -89.871
  O     -164.704     242.934     -89.707
  H     -163.082     241.941     -88.963
  H     -162.704     243.320     -90.012
  H     -163.305     241.788     -90.718
  P     -165.442     243.629     -90.947
  C     -164.584     246.011     -90.446
  O     -164.576     244.920     -91.354
  C     -164.995     247.305     -91.157
  O     -166.275     247.089     -91.810
  C     -165.145     248.504     -90.219
  O     -164.686     249.680     -90.881
  C     -166.642     248.590     -89.994
  O     -167.064     249.912     -89.659
  C     -167.189     248.094     -91.331
  N     -172.103     249.248     -91.121
  C     -171.009     250.054     -91.360
  N     -171.253     251.367     -91.555
  N     -169.778     249.614     -91.402
  C     -169.684     248.274     -91.212
  C     -170.690     247.370     -90.966
  C     -172.044     247.876     -90.901
  O     -173.050     247.214     -90.677
  N     -170.190     246.102     -90.809
  C     -168.887     246.240     -90.956
  N     -168.526     247.541     -91.192
  O     -166.900     243.897     -90.742
  O     -165.197     242.626     -92.165
  H     -167.980     249.841     -89.317
  H     -166.005     242.125     -92.375
  H     -173.027     249.642     -91.088
  H     -168.162     245.438     -90.901
  H     -167.252     248.892     -92.080
  H     -166.934     247.920     -89.176
  H     -172.179     251.773     -91.560
  H     -164.595     248.369     -89.286
  H     -170.472     251.977     -91.762
  H     -164.266     247.512     -91.949
  H     -163.577     246.122     -90.034
  H     -165.279     245.794     -89.627
  P     -163.271     250.309     -90.461
  C     -164.039     252.273     -88.992
  O     -163.421     250.994     -89.016
  O     -162.616     251.161     -91.497
  O     -162.386     249.011     -90.142
  H     -161.460     249.187     -90.407
  H     -164.084     252.628     -87.984
  H     -165.030     252.198     -89.388
  H     -163.468     252.956     -89.586

 6  7  8  9  10  11  12  13  14  15  26  29  33  34 0
 6-311+G(2d,p)
 ****
 36  38  39  40  41 0
 6-311+G(2d,p)
 ****
 1  2  3  4  5  16  17  18  19  20  21  22  23  24  25 0
 3-21G
 ****
 27  28  30  31  32  35  37  42  43  44  45  46  47 0
 3-21G
 ****
 48  49 0
 3-21G
 ****


