%nproc=1
%NoSave
%Mem=1900MB
#P OB98/GEN NMR

erre ene a

0 1
  C     -241.456     655.086     -82.685
  O     -240.160     654.556     -82.866
  H     -241.443     655.779     -81.838
  H     -242.160     654.280     -82.463
  H     -241.784     655.631     -83.577
  P     -239.908     653.638     -84.154
  C     -238.006     652.067     -83.326
  O     -238.364     653.208     -84.113
  C     -236.601     652.245     -82.748
  O     -235.675     652.513     -83.836
  C     -236.488     653.397     -81.740
  O     -235.595     652.995     -80.687
  C     -235.844     654.514     -82.535
  O     -235.135     655.455     -81.716
  C     -234.962     653.727     -83.520
  N     -234.670     654.518     -84.718
  C     -233.582     655.389     -84.640
  O     -232.929     655.485     -83.595
  N     -233.296     656.179     -85.723
  C     -234.070     656.164     -86.768
  N     -233.754     656.998     -87.790
  C     -235.269     655.294     -86.860
  C     -235.502     654.507     -85.810
  O     -239.962     654.677     -85.371
  O     -240.865     652.505     -84.330
  H     -235.800     655.977     -81.210
  H     -240.310     654.258     -86.183
  H     -235.909     655.338     -87.733
  H     -236.361     653.836     -85.788
  H     -234.011     653.450     -83.042
  H     -236.621     655.065     -83.091
  H     -237.449     653.690     -81.311
  H     -236.294     651.288     -82.287
  H     -232.932     657.580     -87.691
  H     -238.017     651.188     -83.974
  H     -234.319     657.095     -88.633
  H     -238.741     651.938     -82.530
  P     -236.177     653.092     -79.190
  C     -233.795     653.701     -78.329
  O     -234.952     652.888     -78.179
  O     -237.042     651.754     -79.040
  O     -236.997     654.315     -78.941
  H     -237.997     651.973     -79.034
  H     -233.076     653.440     -77.581
  H     -234.066     654.730     -78.220
  H     -233.372     653.544     -79.299

 6  7  8  9  10  11  12  13  14  15  16  26  30  31  32  33  35 0
 6-311+G(2d,p)
 ****
 37  38 0
 6-311+G(2d,p)
 ****
 1  2  3  4  5  17  18  19  20  21  22  23  24  25 0
 3-21G
 ****
 27  28  29  34  36  39  40  41  42  43  44  45  46 0
 3-21G
 ****


