%nproc=1
%NoSave
%Mem=1900MB
#P OB98/GEN NMR

erre ene a

0 1
  C      260.896     102.632    -132.218
  O      260.969     103.294    -133.486
  P      261.906     104.574    -133.760
  C      260.278     106.533    -133.360
  O      261.392     105.807    -132.867
  C      259.984     107.780    -132.509
  O      259.525     107.383    -131.179
  C      261.192     108.720    -132.318
  O      260.684     110.057    -132.366
  C      261.660     108.352    -130.913
  O      262.485     109.333    -130.313
  C      260.297     108.157    -130.230
  N      260.335     107.491    -128.928
  C      260.192     108.289    -127.785
  O      260.088     109.513    -127.860
  N      260.185     107.673    -126.551
  C      260.317     106.382    -126.464
  N      260.287     105.840    -125.217
  C      260.494     105.507    -127.641
  C      260.490     106.122    -128.825
  O      262.046     104.913    -135.210
  O      263.332     104.205    -133.127
  H      264.039     104.590    -133.682
  H      262.674     109.051    -129.400
  H      260.593     104.441    -127.526
  H      260.588     105.547    -129.740
  H      259.801     109.131    -130.130
  H      262.228     107.416    -130.970
  H      261.962     108.606    -133.086
  H      259.149     108.324    -132.973
  H      260.157     106.476    -124.432
  H      259.397     105.880    -133.337
  H      260.375     104.848    -125.032
  H      260.466     106.822    -134.404
  P      260.877     110.933    -133.699
  C      262.962     112.395    -133.103
  O      262.436     111.288    -133.822
  O      260.254     112.350    -133.257
  O      260.193     110.428    -134.931
  H      259.947     112.826    -134.052
  H      263.908     112.097    -132.642
  H      262.279     112.740    -132.317
  H      263.152     113.216    -133.805
  H      260.210     101.814    -132.282
  H      260.559     103.323    -131.474
  H      261.865     102.265    -131.951

 3  4  5  6  7  8  9  10  11  12  13  24  27  28  29  30  32 0
 6-311+G(2d,p)
 ****
 34  35 0
 6-311+G(2d,p)
 ****
 1  2  14  15  16  17  18  19  20  21  22  23  25  26 0
 3-21G
 ****
 31  33  36  37  38  39  40  41  42  43  44  45  46 0
 3-21G
 ****


