%nproc=1
%NoSave
%Mem=1900MB
#P OB98/GEN NMR

erre ene a

0 1
  C     -377.298    -168.233    -468.033
  O     -378.441    -167.684    -467.398
  H     -377.573    -168.525    -469.053
  H     -376.942    -169.116    -467.497
  H     -376.505    -167.487    -468.092
  P     -378.365    -167.407    -465.819
  C     -380.069    -169.338    -465.601
  O     -378.849    -168.777    -465.121
  C     -380.228    -170.784    -465.122
  O     -379.390    -171.667    -465.906
  C     -379.812    -171.007    -463.673
  O     -380.667    -170.407    -462.728
  C     -379.573    -172.512    -463.627
  O     -380.758    -173.267    -463.371
  C     -379.067    -172.800    -465.069
  N     -377.647    -173.117    -465.097
  C     -377.309    -174.419    -464.754
  O     -378.132    -175.271    -464.403
  N     -375.964    -174.711    -464.765
  C     -374.963    -173.828    -465.033
  O     -373.776    -174.149    -464.984
  C     -375.374    -172.457    -465.365
  C     -376.684    -172.167    -465.386
  O     -379.092    -166.187    -465.331
  O     -376.789    -167.380    -465.511
  H     -380.580    -174.183    -463.649
  H     -376.607    -166.963    -464.632
  H     -375.706    -175.659    -464.523
  H     -374.601    -171.735    -465.588
  H     -377.013    -171.161    -465.629
  H     -379.617    -173.656    -465.491
  H     -378.842    -172.775    -462.852
  H     -378.829    -170.534    -463.534
  H     -381.280    -171.090    -465.281
  H     -380.036    -169.323    -466.693
  H     -380.917    -168.730    -465.262
  P     -380.457    -170.534    -461.143
  C     -382.799    -171.628    -460.814
  O     -381.389    -171.734    -460.608
  O     -380.406    -169.263    -460.362
  O     -378.974    -171.193    -461.078
  H     -378.541    -170.845    -460.278
  H     -383.284    -172.491    -460.409
  H     -383.002    -171.563    -461.862
  H     -383.166    -170.750    -460.324

 6  7  8  9  10  11  12  13  14  15  16  26  31  32  33  34  35 0
 6-311+G(2d,p)
 ****
 36  37 0
 6-311+G(2d,p)
 ****
 1  2  3  4  5  17  18  19  20  21  22  23  24  25 0
 3-21G
 ****
 27  28  29  30  38  39  40  41  42  43  44  45 0
 3-21G
 ****


