%nproc=1
%NoSave
%Mem=1900MB
#P OB98/GEN NMR

erre ene a

0 1
  C     -109.306     188.926      84.450
  O     -109.641     190.020      83.622
  H     -109.920     188.973      85.354
  H     -108.254     188.978      84.740
  H     -109.506     187.978      83.941
  P     -108.980     190.118      82.164
  C     -107.195     191.789      82.979
  O     -108.267     191.552      82.074
  C     -106.326     192.934      82.464
  O     -105.387     193.346      83.483
  C     -105.485     192.571      81.245
  O     -106.281     192.531      80.077
  C     -104.445     193.681      81.285
  O     -104.973     194.902      80.744
  C     -104.199     193.822      82.807
  N     -103.009     193.100      83.260
  C     -101.808     193.797      83.192
  O     -101.718     194.951      82.779
  N     -100.692     193.099      83.579
  C     -100.657     191.779      83.926
  O      -99.616     191.140      84.051
  C     -101.965     191.116      84.050
  C     -103.063     191.792      83.701
  O     -109.879     189.786      81.021
  O     -107.739     189.107      82.247
  H     -107.978     188.268      81.809
  H     -104.270     195.575      80.843
  H      -99.808     193.580      83.490
  H     -101.985     190.086      84.386
  H     -104.035     191.314      83.755
  H     -104.082     194.879      83.078
  H     -103.553     193.435      80.707
  H     -104.983     191.610      81.407
  H     -106.981     193.788      82.244
  H     -106.591     190.878      83.050
  H     -107.605     192.024      83.966
  P     -106.161     191.323      79.034
  C     -104.421     192.176      77.357
  O     -105.801     191.939      77.599
  O     -107.315     190.375      79.029
  O     -104.809     190.572      79.453
  H     -104.998     189.623      79.586
  H     -104.296     192.585      76.376
  H     -103.883     191.254      77.431
  H     -104.045     192.867      78.082

 6  7  8  9  10  11  12  13  14  15  16  27  31  32  33  34  35 0
 6-311+G(2d,p)
 ****
 36  37 0
 6-311+G(2d,p)
 ****
 1  2  3  4  5  17  18  19  20  21  22  23  24  25 0
 3-21G
 ****
 26  28  29  30  38  39  40  41  42  43  44  45 0
 3-21G
 ****


