%nproc=1
%NoSave
%Mem=1900MB
#P OB98/GEN NMR

erre ene a

0 1
  C       83.199     316.492      13.028
  O       83.322     315.228      13.646
  H       82.270     316.957      13.369
  H       83.154     316.380      11.942
  H       84.035     317.141      13.301
  P       84.667     314.385      13.423
  C       83.875     311.981      12.932
  O       84.364     312.888      13.913
  C       83.654     310.608      13.560
  O       84.880     310.123      14.150
  C       82.621     310.601      14.681
  O       81.311     310.672      14.159
  C       82.973     309.292      15.373
  O       82.431     308.169      14.661
  C       84.518     309.299      15.281
  N       85.159     309.773      16.508
  C       84.994     308.973      17.635
  O       84.347     307.927      17.632
  N       85.562     309.447      18.789
  C       86.181     310.654      18.937
  O       86.478     311.133      20.027
  C       86.393     311.419      17.699
  C       85.866     310.958      16.563
  O       85.913     314.992      13.976
  O       84.750     314.227      11.830
  H       85.391     314.872      11.476
  H       82.671     308.295      13.722
  H       85.406     308.899      19.623
  H       86.938     312.352      17.763
  H       85.983     311.520      15.641
  H       84.894     308.289      15.070
  H       82.584     309.242      16.392
  H       82.811     311.429      15.373
  H       83.366     309.909      12.763
  H       84.620     311.902      12.133
  H       82.943     312.373      12.514
  P       80.340     311.891      14.524
  C       78.441     310.286      15.141
  O       78.827     311.394      14.340
  O       80.655     313.179      13.838
  O       80.479     312.043      16.115
  H       80.706     312.968      16.327
  H       77.419     310.039      14.940
  H       78.550     310.538      16.175
  H       79.063     309.446      14.911

 6  7  8  9  10  11  12  13  14  15  16  27  31  32  33  34  35 0
 6-311+G(2d,p)
 ****
 36  37 0
 6-311+G(2d,p)
 ****
 1  2  3  4  5  17  18  19  20  21  22  23  24  25 0
 3-21G
 ****
 26  28  29  30  38  39  40  41  42  43  44  45 0
 3-21G
 ****


