%nproc=1
%NoSave
%Mem=1900MB
#P OB98/GEN NMR

erre ene a

0 1
  C     -156.439       7.914     161.096
  O     -156.536       7.322     162.381
  H     -155.431       7.738     160.711
  H     -156.609       8.991     161.162
  H     -157.161       7.454     160.418
  P     -157.937       7.495     163.146
  C     -157.576       5.138     164.150
  O     -158.437       5.993     163.408
  C     -157.643       3.711     163.601
  O     -157.370       3.708     162.189
  C     -156.641       2.750     164.231
  O     -157.150       2.235     165.457
  C     -156.568       1.666     163.161
  O     -157.694       0.771     163.297
  C     -156.690       2.467     161.855
  N     -152.056       0.717     160.500
  C     -153.013       0.199     161.301
  N     -154.192       0.745     161.664
  C     -154.360       1.949     161.095
  C     -153.469       2.603     160.251
  C     -152.272       1.936     159.952
  N     -151.292       2.468     159.134
  N     -153.975       3.830     159.866
  C     -155.174       3.883     160.409
  N     -155.438       2.787     161.195
  O     -158.921       8.413     162.492
  O     -157.438       7.955     164.597
  H     -157.606       0.341     164.170
  H     -156.649       7.447     164.865
  H     -152.796      -0.790     161.717
  H     -155.894       4.676     160.255
  H     -157.311       1.942     161.114
  H     -155.670       1.055     163.245
  H     -155.653       3.205     164.353
  H     -158.673       3.344     163.732
  H     -157.863       5.139     165.213
  H     -150.397       2.012     159.129
  H     -151.402       3.426     158.835
  H     -156.561       5.533     164.065
  P     -156.209       2.093     166.748
  C     -157.564       3.555     168.380
  O     -156.396       3.462     167.558
  O     -154.798       1.702     166.448
  O     -156.968       1.025     167.671
  H     -156.355       0.673     168.347
  H     -157.581       4.507     168.868
  H     -157.546       2.777     169.115
  H     -158.438       3.450     167.771

 6  7  8  9  10  11  12  13  14  15  25  28  32  33  34  35 0
 6-311+G(2d,p)
 ****
 36  39  40 0
 6-311+G(2d,p)
 ****
 1  2  3  4  5  16  17  18  19  20  21  22  23  24 0
 3-21G
 ****
 26  27  29  30  31  37  38  41  42  43  44  45  46  47 0
 3-21G
 ****
 48 0
 3-21G
 ****


