%nproc=1
%NoSave
%Mem=1900MB
#P OB98/GEN NMR

erre ene a

0 1
  C      200.464     336.626     179.078
  O      200.034     337.188     177.850
  H      199.879     335.725     179.275
  H      200.310     337.338     179.892
  H      201.523     336.356     179.015
  P      200.701     338.589     177.430
  C      198.850     340.156     178.403
  O      200.153     339.611     178.547
  C      198.602     341.207     179.473
  O      198.643     340.624     180.794
  C      199.633     342.335     179.504
  O      199.442     343.300     178.473
  C      199.351     342.919     180.877
  O      198.132     343.682     180.840
  C      199.178     341.620     181.707
  N      200.431     341.154     182.307
  C      200.798     341.742     183.528
  O      200.095     342.602     184.049
  N      201.983     341.355     184.109
  C      202.721     340.446     183.545
  N      203.884     340.110     184.174
  C      202.371     339.799     182.270
  C      201.226     340.192     181.710
  O      199.874     339.011     176.128
  O      202.183     338.582     177.253
  H      198.116     344.226     181.646
  H      200.106     339.942     175.869
  H      203.022     339.057     181.830
  H      200.897     339.762     180.773
  H      198.438     341.771     182.503
  H      200.137     343.587     181.235
  H      200.656     341.942     179.484
  H      197.587     341.608     179.324
  H      204.130     340.614     185.009
  H      198.123     339.332     178.509
  H      204.594     339.535     183.741
  H      198.731     340.595     177.414
  P      200.767     343.937     177.813
  C      200.603     346.142     179.193
  O      201.356     344.977     178.878
  O      200.174     344.882     176.663
  O      201.741     342.940     177.277
  H      200.767     344.903     175.891
  H      201.134     346.726     179.915
  H      199.654     345.855     179.595
  H      200.455     346.721     178.306

 6  7  8  9  10  11  12  13  14  15  16  26  30  31  32  33  35 0
 6-311+G(2d,p)
 ****
 37  38 0
 6-311+G(2d,p)
 ****
 1  2  3  4  5  17  18  19  20  21  22  23  24  25 0
 3-21G
 ****
 27  28  29  34  36  39  40  41  42  43  44  45  46 0
 3-21G
 ****


