%nproc=1
%NoSave
%Mem=1900MB
#P OB98/GEN NMR

erre ene a

0 1
  C      -57.064     507.350     416.057
  O      -56.575     506.434     417.012
  P      -56.229     504.908     416.681
  C      -58.611     503.834     416.536
  O      -57.405     503.984     417.270
  C      -59.835     504.037     417.444
  O      -61.039     503.876     416.642
  C      -59.886     502.981     418.564
  O      -60.272     503.496     419.833
  C      -60.760     501.888     417.958
  O      -61.332     501.013     418.914
  C      -61.757     502.701     417.122
  N      -66.042     501.279     414.801
  C      -65.870     502.202     415.815
  N      -66.995     502.664     416.402
  N      -64.693     502.604     416.234
  C      -63.660     501.965     415.633
  C      -63.711     501.042     414.617
  C      -65.016     500.627     414.140
  O      -65.215     499.735     413.316
  N      -62.458     500.558     414.298
  C      -61.662     501.175     415.145
  N      -62.341     502.016     415.995
  O      -54.818     504.475     416.899
  O      -56.519     504.844     415.092
  H      -61.825     501.554     419.552
  H      -55.876     504.211     414.703
  H      -66.974     500.944     414.579
  H      -60.578     501.025     415.199
  H      -62.586     503.057     417.732
  H      -60.122     501.271     417.306
  H      -67.904     502.262     416.202
  H      -58.884     502.571     418.747
  H      -66.894     503.140     417.299
  H      -59.836     505.058     417.838
  H      -58.602     502.824     416.126
  H      -58.636     504.537     415.690
  P      -59.482     503.426     421.214
  C      -59.661     500.875     420.963
  O      -59.697     501.974     421.858
  O      -60.298     504.381     422.208
  O      -58.047     503.870     421.143
  H      -59.683     504.885     422.770
  H      -60.092     500.000     421.464
  H      -58.628     500.654     420.689
  H      -60.248     501.091     420.060
  H      -57.217     508.302     416.521
  H      -57.992     506.992     415.662
  H      -56.354     507.451     415.263

 3  4  5  6  7  8  9  10  11  12  23  26  30  31 0
 6-311+G(2d,p)
 ****
 33  35  36  37  38 0
 6-311+G(2d,p)
 ****
 1  2  13  14  15  16  17  18  19  20  21  22  24  25 0
 3-21G
 ****
 27  28  29  32  34  39  40  41  42  43  44  45  46  47  48  49 0
 3-21G
 ****


