%nproc=1
%NoSave
%Mem=1900MB
#P OB98/GEN NMR

erre ene a

0 1
  C     -192.740    -185.889    -299.899
  O     -192.888    -184.506    -299.658
  H     -192.389    -186.031    -300.925
  H     -193.704    -186.392    -299.782
  H     -192.008    -186.322    -299.211
  P     -193.312    -184.069    -298.174
  C     -194.843    -182.077    -298.825
  O     -193.616    -182.490    -298.236
  C     -194.704    -180.685    -299.441
  O     -193.821    -180.764    -300.598
  C     -196.029    -180.072    -299.917
  O     -195.971    -178.655    -299.696
  C     -195.995    -180.318    -301.420
  O     -196.852    -179.432    -302.141
  C     -194.503    -180.121    -301.687
  N     -194.657    -179.324    -306.656
  C     -195.108    -178.541    -305.601
  N     -195.694    -177.365    -305.928
  N     -194.999    -178.885    -304.351
  C     -194.362    -180.071    -304.174
  C     -193.875    -180.936    -305.125
  C     -194.028    -180.558    -306.515
  O     -193.667    -181.215    -307.485
  N     -193.325    -182.054    -304.540
  C     -193.481    -181.859    -303.239
  N     -194.108    -180.673    -302.969
  O     -191.925    -184.155    -297.375
  O     -194.373    -184.900    -297.538
  H     -196.315    -178.668    -302.437
  H     -191.834    -185.025    -296.947
  H     -194.777    -179.015    -307.605
  H     -193.161    -182.543    -302.464
  H     -194.222    -179.065    -301.695
  H     -196.300    -181.347    -301.642
  H     -195.770    -177.018    -306.867
  H     -196.922    -180.487    -299.435
  H     -195.991    -176.759    -305.170
  H     -194.212    -180.031    -298.714
  H     -195.620    -182.053    -298.054
  H     -195.133    -182.799    -299.600
  P     -197.110    -177.987    -298.788
  C     -197.318    -175.750    -300.098
  O     -196.955    -176.397    -298.887
  O     -196.602    -178.298    -297.294
  O     -198.484    -178.524    -299.025
  H     -197.366    -178.347    -296.691
  H     -197.156    -174.697    -300.002
  H     -198.351    -175.935    -300.305
  H     -196.720    -176.131    -300.899

 6  7  8  9  10  11  12  13  14  15  26  29  33  34 0
 6-311+G(2d,p)
 ****
 36  38  39  40  41 0
 6-311+G(2d,p)
 ****
 1  2  3  4  5  16  17  18  19  20  21  22  23  24  25 0
 3-21G
 ****
 27  28  30  31  32  35  37  42  43  44  45  46  47 0
 3-21G
 ****
 48  49 0
 3-21G
 ****


