%nproc=1
%NoSave
%Mem=1900MB
#P OB98/GEN NMR

erre ene a

0 1
  C      217.497      89.594     107.111
  O      217.969      88.484     107.843
  H      217.772      89.465     106.061
  H      217.959      90.514     107.484
  H      216.409      89.668     107.186
  P      217.652      88.455     109.419
  C      219.933      87.633     110.369
  O      218.598      87.295     110.009
  C      220.913      86.594     109.815
  O      220.522      85.278     110.280
  C      220.960      86.557     108.286
  O      222.317      86.442     107.855
  C      220.177      85.305     107.922
  O      220.575      84.763     106.662
  C      220.429      84.404     109.136
  N      219.364      83.417     109.310
  C      219.494      82.221     108.597
  O      220.464      82.040     107.857
  N      218.501      81.275     108.698
  C      217.439      81.533     109.398
  N      216.480      80.569     109.439
  C      217.238      82.801     110.124
  C      218.229      83.686     110.041
  O      216.190      87.814     109.477
  O      217.767      89.769     110.115
  H      219.883      84.135     106.373
  H      215.779      87.929     110.367
  H      216.326      82.977     110.682
  H      218.163      84.647     110.542
  H      221.384      83.875     109.035
  H      219.109      85.554     107.857
  H      220.518      87.438     107.824
  H      221.906      86.791     110.240
  H      216.652      79.713     108.918
  H      220.011      87.667     111.459
  H      215.603      80.672     109.926
  H      220.176      88.619     109.958
  P      222.885      87.675     106.990
  C      224.097      86.197     105.235
  O      224.225      87.173     106.257
  O      223.411      88.701     108.098
  O      221.866      88.283     106.083
  H      222.754      89.407     108.244
  H      225.064      85.963     104.842
  H      223.477      86.580     104.451
  H      223.653      85.312     105.641

 6  7  8  9  10  11  12  13  14  15  16  26  30  31  32  33  35 0
 6-311+G(2d,p)
 ****
 37  38 0
 6-311+G(2d,p)
 ****
 1  2  3  4  5  17  18  19  20  21  22  23  24  25 0
 3-21G
 ****
 27  28  29  34  36  39  40  41  42  43  44  45  46 0
 3-21G
 ****


