%nproc=1
%NoSave
%Mem=1900MB
#P OB98/GEN NMR

erre ene a

0 1
  C      694.546     567.616     280.648
  O      694.324     566.657     279.641
  P      694.472     565.093     279.919
  C      695.608     563.336     278.400
  O      695.746     564.586     279.067
  C      696.891     563.028     277.603
  O      697.029     564.007     276.533
  C      698.168     563.085     278.471
  O      698.979     561.901     278.381
  C      698.825     564.366     278.013
  O      700.213     564.438     278.272
  C      698.404     564.422     276.534
  N      698.586     565.750     275.936
  C      699.841     566.026     275.380
  O      700.760     565.230     275.330
  N      700.004     567.292     274.898
  C      699.117     568.331     275.023
  O      699.371     569.467     274.659
  C      697.838     567.988     275.667
  C      697.623     566.720     276.073
  O      693.247     564.273     279.713
  O      695.044     565.049     281.421
  H      700.553     565.286     277.927
  H      695.884     565.512     281.552
  H      700.900     567.517     274.480
  H      697.117     568.792     275.796
  H      696.685     566.454     276.554
  H      698.961     563.705     275.930
  H      698.359     565.204     278.549
  H      697.910     563.157     279.535
  H      696.751     562.031     277.154
  H      694.759     563.387     277.712
  H      695.397     562.546     279.125
  P      700.198     561.556     279.370
  C      702.786     561.983     279.355
  O      701.513     562.316     278.839
  O      700.393     560.115     279.660
  O      699.844     562.369     280.708
  H      700.216     561.919     281.480
  H      703.437     562.860     279.295
  H      703.198     561.167     278.744
  H      702.700     561.644     280.398
  H      694.393     568.596     280.247
  H      695.550     567.530     281.007
  H      693.863     567.450     281.455

 3  4  5  6  7  8  9  10  11  12  13  23  28  29  30  31  32 0
 6-311+G(2d,p)
 ****
 33  34 0
 6-311+G(2d,p)
 ****
 1  2  14  15  16  17  18  19  20  21  22  24  25  26  27 0
 3-21G
 ****
 35  36  37  38  39  40  41  42  43  44  45 0
 3-21G
 ****


