%nproc=1
%NoSave
%Mem=1900MB
#P OB98/GEN NMR

erre ene a

0 1
  C     -184.911      91.563      20.272
  O     -185.953      90.615      20.084
  P     -185.948      89.765      18.722
  C     -184.769      87.681      19.754
  O     -184.703      88.757      18.812
  C     -184.695      86.346      19.021
  O     -183.481      86.245      18.248
  C     -184.692      85.136      19.944
  O     -185.995      84.776      20.388
  C     -184.135      84.062      19.014
  O     -185.181      83.570      18.148
  C     -183.094      84.848      18.205
  N     -178.438      83.153      17.183
  C     -179.519      83.328      16.333
  N     -179.350      82.935      15.051
  N     -180.663      83.835      16.712
  C     -180.686      84.179      18.032
  C     -179.672      84.055      18.958
  C     -178.420      83.479      18.529
  O     -177.441      83.248      19.237
  N     -180.071      84.523      20.187
  C     -181.301      84.912      20.002
  N     -181.751      84.686      18.724
  O     -185.474      90.825      17.616
  O     -187.257      89.146      18.365
  H     -185.531      84.356      17.683
  H     -185.692      90.507      16.726
  H     -177.580      82.754      16.832
  H     -181.931      85.355      20.771
  H     -183.091      84.551      17.145
  H     -183.731      83.198      19.557
  H     -178.527      82.472      14.715
  H     -183.995      85.281      20.783
  H     -180.154      82.986      14.435
  H     -185.538      86.287      18.327
  H     -185.709      87.748      20.307
  H     -183.943      87.782      20.466
  P     -186.094      83.918      21.749
  C     -185.699      85.900      23.370
  O     -185.191      84.698      22.824
  O     -185.219      82.607      21.397
  O     -187.496      83.579      22.164
  H     -185.530      81.854      21.939
  H     -185.111      86.156      24.265
  H     -186.749      85.783      23.677
  H     -185.617      86.715      22.651
  H     -185.040      92.052      21.215
  H     -184.943      92.289      19.487
  H     -183.966      91.062      20.256

 3  4  5  6  7  8  9  10  11  12  23  26  30  31 0
 6-311+G(2d,p)
 ****
 33  35  36  37  38 0
 6-311+G(2d,p)
 ****
 1  2  13  14  15  16  17  18  19  20  21  22  24  25 0
 3-21G
 ****
 27  28  29  32  34  39  40  41  42  43  44  45  46  47  48  49 0
 3-21G
 ****


