%nproc=1
%NoSave
%Mem=1900MB
#P OB98/GEN NMR

erre ene a

0 1
  C      442.573    -204.260     417.544
  O      443.563    -203.948     418.503
  P      443.661    -202.463     419.110
  C      443.681    -200.066     418.182
  O      443.895    -201.445     417.890
  C      443.952    -199.209     416.950
  O      443.380    -199.819     415.763
  C      443.333    -197.819     417.007
  O      444.026    -196.973     417.902
  C      443.403    -197.407     415.541
  O      444.718    -196.936     415.201
  C      443.112    -198.751     414.827
  N      441.752    -198.816     414.318
  C      441.490    -198.068     413.162
  O      442.360    -197.340     412.685
  N      440.244    -198.165     412.594
  C      439.312    -198.837     413.188
  N      438.117    -198.950     412.547
  C      439.499    -199.503     414.492
  C      440.745    -199.474     414.983
  O      444.612    -202.301     420.249
  O      442.167    -202.130     419.565
  H      442.186    -201.794     420.491
  H      444.670    -196.620     414.283
  H      438.675    -200.004     414.981
  H      440.980    -199.958     415.926
  H      443.812    -198.892     414.002
  H      442.694    -196.605     415.307
  H      442.284    -197.899     417.320
  H      445.043    -199.143     416.811
  H      438.024    -198.490     411.644
  H      444.356    -199.772     418.988
  H      437.448    -199.694     412.741
  H      442.654    -199.924     418.533
  P      443.524    -195.449     418.003
  C      442.959    -193.670     416.208
  O      443.772    -194.767     416.580
  O      444.612    -194.762     418.955
  O      442.143    -195.290     418.555
  H      444.183    -194.099     419.527
  H      443.461    -193.124     415.410
  H      442.783    -193.000     417.054
  H      441.999    -194.046     415.827
  H      442.663    -205.288     417.260
  H      442.703    -203.639     416.683
  H      441.604    -204.090     417.964

 3  4  5  6  7  8  9  10  11  12  13  24  27  28  29  30  32 0
 6-311+G(2d,p)
 ****
 34  35 0
 6-311+G(2d,p)
 ****
 1  2  14  15  16  17  18  19  20  21  22  23  25  26 0
 3-21G
 ****
 31  33  36  37  38  39  40  41  42  43  44  45  46 0
 3-21G
 ****


