%nproc=1
%NoSave
%Mem=1900MB
#P OB98/GEN NMR

erre ene a

0 1
  C     -719.090      -4.397    -750.866
  O     -718.329      -5.599    -750.763
  P     -717.155      -5.834    -751.835
  C     -716.954      -6.967    -754.161
  O     -717.809      -6.579    -753.108
  C     -717.743      -7.479    -755.366
  O     -718.278      -8.805    -755.062
  C     -718.940      -6.600    -755.764
  O     -719.097      -6.682    -757.180
  C     -720.124      -7.294    -755.102
  O     -721.365      -6.938    -755.695
  C     -719.715      -8.750    -755.265
  N     -722.698     -12.878    -754.797
  C     -722.175     -12.278    -755.877
  N     -721.380     -11.176    -755.915
  C     -721.146     -10.712    -754.685
  C     -721.638     -11.201    -753.488
  C     -722.458     -12.344    -753.559
  N     -722.987     -12.972    -752.461
  N     -721.209     -10.428    -752.425
  C     -720.459      -9.492    -752.973
  N     -720.386      -9.623    -754.334
  O     -716.274      -6.978    -751.142
  O     -716.320      -4.630    -752.163
  H     -722.073      -7.469    -755.267
  H     -715.407      -6.623    -750.870
  H     -722.416     -12.733    -756.834
  H     -719.971      -8.681    -752.430
  H     -719.919      -9.125    -756.285
  H     -720.164      -7.015    -754.035
  H     -718.839      -5.542    -755.451
  H     -717.061      -7.596    -756.218
  H     -716.308      -7.780    -753.804
  H     -723.426     -13.873    -752.589
  H     -722.656     -12.702    -751.544
  H     -716.317      -6.135    -754.450
  P     -719.851      -5.469    -757.912
  C     -722.218      -4.401    -757.741
  O     -721.328      -5.396    -757.286
  O     -720.101      -6.023    -759.402
  O     -719.080      -4.170    -757.926
  H     -720.152      -5.274    -760.025
  H     -723.240      -4.801    -757.698
  H     -721.980      -4.109    -758.789
  H     -722.167      -3.526    -757.091
  H     -719.830      -4.376    -750.093
  H     -719.570      -4.360    -751.821
  H     -718.440      -3.553    -750.760

 3  4  5  6  7  8  9  10  11  12  22  25  29  30  31  32 0
 6-311+G(2d,p)
 ****
 33  36  37 0
 6-311+G(2d,p)
 ****
 1  2  13  14  15  16  17  18  19  20  21  23  24  26 0
 3-21G
 ****
 27  28  34  35  38  39  40  41  42  43  44  45  46  47  48 0
 3-21G
 ****


