%nproc=1
%NoSave
%Mem=1900MB
#P OB98/GEN NMR

erre ene a

0 1
  C      194.481     609.901    -919.828
  O      195.298     609.377    -920.879
  P      194.991     609.924    -922.354
  C      197.131     608.570    -922.970
  O      195.878     609.087    -923.399
  C      197.714     607.616    -924.013
  O      197.042     606.342    -924.021
  C      197.631     608.144    -925.439
  O      198.675     609.074    -925.667
  C      197.788     606.844    -926.255
  O      199.177     606.502    -926.424
  C      197.065     605.830    -925.365
  N      194.176     603.974    -929.118
  C      195.505     604.340    -929.132
  N      196.148     604.124    -930.275
  N      196.130     604.818    -928.069
  C      195.337     604.942    -927.001
  C      194.003     604.620    -926.852
  C      193.316     604.080    -928.010
  O      192.142     603.740    -928.057
  N      193.554     604.852    -925.568
  C      194.582     605.440    -924.986
  N      195.716     605.461    -925.779
  O      195.704     611.379    -922.354
  O      193.545     610.045    -922.680
  H      199.228     605.627    -926.849
  H      195.027     612.084    -922.367
  H      193.720     603.620    -929.941
  H      194.571     605.815    -923.973
  H      197.614     604.864    -925.321
  H      197.374     606.960    -927.249
  H      195.743     603.764    -931.113
  H      196.649     608.588    -925.615
  H      197.160     604.378    -930.312
  H      198.769     607.441    -923.742
  H      197.032     608.057    -922.007
  H      197.805     609.427    -922.800
  P      198.271     610.559    -926.077
  C      200.424     611.671    -925.127
  O      199.620     611.411    -926.257
  O      197.637     611.155    -924.708
  O      197.281     610.664    -927.182
  H      196.810     611.652    -924.915
  H      201.476     611.735    -925.450
  H      200.353     610.852    -924.407
  H      200.121     612.615    -924.680
  H      194.776     609.466    -918.896
  H      193.455     609.666    -920.022
  H      194.600     610.963    -919.779

 3  4  5  6  7  8  9  10  11  12  23  26  30  31 0
 6-311+G(2d,p)
 ****
 33  35  36  37  38 0
 6-311+G(2d,p)
 ****
 1  2  13  14  15  16  17  18  19  20  21  22  24  25 0
 3-21G
 ****
 27  28  29  32  34  39  40  41  42  43  44  45  46  47  48  49 0
 3-21G
 ****


