%nproc=1
%NoSave
%Mem=1900MB
#P OB98/GEN NMR

erre ene a

0 1
  C      444.232     -21.596    -504.214
  O      444.555     -21.377    -502.859
  H      444.458     -22.639    -504.465
  H      444.832     -20.947    -504.856
  H      443.168     -21.420    -504.398
  P      444.133     -19.990    -502.179
  C      444.892     -17.532    -502.349
  O      444.993     -18.842    -502.890
  C      445.363     -16.502    -503.372
  O      446.789     -16.621    -503.578
  C      444.736     -16.663    -504.752
  O      443.403     -16.181    -504.761
  C      445.712     -15.870    -505.602
  O      445.448     -14.458    -505.500
  C      447.061     -16.226    -504.936
  N      447.794     -17.277    -505.655
  C      448.310     -16.929    -506.896
  O      448.146     -15.827    -507.411
  N      449.023     -17.913    -507.541
  C      449.184     -19.197    -507.108
  O      449.783     -20.052    -507.751
  C      448.584     -19.509    -505.806
  C      447.927     -18.556    -505.147
  O      444.163     -19.963    -500.684
  O      442.656     -19.731    -502.737
  H      445.622     -14.209    -504.570
  H      441.999     -19.987    -502.065
  H      449.393     -17.680    -508.449
  H      448.688     -20.524    -505.433
  H      447.477     -18.770    -504.188
  H      447.705     -15.344    -504.888
  H      445.650     -16.125    -506.665
  H      444.768     -17.714    -505.066
  H      445.162     -15.504    -502.968
  H      445.522     -17.469    -501.456
  H      443.849     -17.343    -502.062
  P      442.322     -16.763    -505.794
  C      441.854     -16.306    -508.262
  O      442.859     -16.456    -507.274
  O      440.915     -16.348    -505.540
  O      442.490     -18.352    -505.667
  H      441.736     -18.732    -505.171
  H      442.311     -16.105    -509.208
  H      441.211     -15.493    -507.997
  H      441.281     -17.207    -508.327

 6  7  8  9  10  11  12  13  14  15  16  26  31  32  33  34  35 0
 6-311+G(2d,p)
 ****
 36  37 0
 6-311+G(2d,p)
 ****
 1  2  3  4  5  17  18  19  20  21  22  23  24  25 0
 3-21G
 ****
 27  28  29  30  38  39  40  41  42  43  44  45 0
 3-21G
 ****


