%nproc=1
%NoSave
%Mem=1900MB
#P OB98/GEN NMR

erre ene a

0 1
  C      104.041    -369.027    -515.092
  O      105.349    -368.486    -515.057
  H      103.978    -369.739    -515.917
  H      103.298    -368.242    -515.255
  H      103.823    -369.552    -514.156
  P      105.649    -367.296    -514.022
  C      107.536    -366.413    -515.559
  O      107.184    -366.893    -514.266
  C      108.901    -365.729    -515.508
  O      108.775    -364.398    -514.966
  C      109.901    -366.447    -514.613
  O      110.400    -367.608    -515.245
  C      110.907    -365.346    -514.365
  O      111.804    -365.205    -515.470
  C      109.985    -364.108    -514.240
  N      109.698    -363.767    -512.850
  C      110.733    -363.129    -512.149
  O      111.803    -362.885    -512.700
  N      110.519    -362.808    -510.825
  C      109.378    -363.073    -510.267
  N      109.239    -362.727    -508.957
  C      108.262    -363.729    -510.976
  C      108.493    -364.048    -512.248
  O      105.296    -367.541    -512.588
  O      104.842    -366.053    -514.634
  H      112.375    -364.433    -515.256
  H      103.936    -366.028    -514.279
  H      107.327    -363.931    -510.468
  H      107.722    -364.527    -512.843
  H      110.446    -363.238    -514.719
  H      111.508    -365.543    -513.475
  H      109.435    -366.700    -513.651
  H      109.280    -365.643    -516.533
  H      110.031    -362.292    -508.508
  H      106.765    -365.698    -515.861
  H      108.377    -362.811    -508.444
  H      107.553    -367.228    -516.286
  P      109.983    -369.069    -514.729
  C      112.209    -370.369    -514.926
  O      110.941    -370.090    -515.518
  O      108.524    -369.377    -514.787
  O      110.580    -369.108    -513.237
  H      110.040    -368.556    -512.618
  H      112.747    -371.057    -515.544
  H      112.063    -370.798    -513.957
  H      112.767    -369.461    -514.834

 6  7  8  9  10  11  12  13  14  15  16  26  30  31  32  33  35 0
 6-311+G(2d,p)
 ****
 37  38 0
 6-311+G(2d,p)
 ****
 1  2  3  4  5  17  18  19  20  21  22  23  24  25 0
 3-21G
 ****
 27  28  29  34  36  39  40  41  42  43  44  45  46 0
 3-21G
 ****


