%nproc=1
%NoSave
%Mem=1900MB
#P OB98/GEN NMR

erre ene a

0 1
  C     -892.440    -697.501    -543.037
  O     -891.750    -698.617    -543.554
  H     -891.740    -696.677    -542.905
  H     -892.880    -697.752    -542.061
  H     -893.240    -697.180    -543.721
  P     -892.580    -699.901    -544.027
  C     -892.330    -699.680    -546.586
  O     -893.200    -699.542    -545.467
  C     -893.140    -699.662    -547.882
  O     -894.170    -700.684    -547.830
  C     -893.870    -698.354    -548.146
  O     -892.980    -697.362    -548.608
  C     -894.910    -698.812    -549.164
  O     -894.330    -698.903    -550.473
  C     -895.280    -700.216    -548.623
  N     -896.520    -700.213    -547.837
  C     -897.690    -700.530    -548.523
  O     -897.710    -700.752    -549.733
  N     -898.840    -700.566    -547.771
  C     -898.930    -700.234    -546.459
  O     -900.000    -700.224    -545.840
  C     -897.670    -699.880    -545.790
  C     -896.540    -699.895    -546.491
  O     -893.560    -700.443    -543.040
  O     -891.440    -700.970    -544.380
  H     -894.880    -699.532    -550.975
  H     -891.350    -701.607    -543.646
  H     -899.680    -700.776    -548.268
  H     -897.710    -699.611    -544.732
  H     -895.600    -699.626    -546.024
  H     -895.400    -700.916    -549.447
  H     -895.750    -698.120    -549.244
  H     -894.400    -698.026    -547.234
  H     -892.460    -699.913    -548.712
  H     -891.790    -700.625    -546.507
  H     -891.610    -698.850    -546.576
  P     -893.270    -695.814    -548.327
  C     -891.600    -695.487    -546.403
  O     -892.970    -695.535    -546.769
  O     -894.580    -695.315    -548.808
  O     -892.060    -695.056    -549.062
  H     -892.380    -694.629    -549.877
  H     -891.518    -695.297    -545.353
  H     -891.113    -694.704    -546.946
  H     -891.136    -696.423    -546.634

 6  7  8  9  10  11  12  13  14  15  16  26  31  32  33  34  35 0
 6-311+G(2d,p)
 ****
 36  37 0
 6-311+G(2d,p)
 ****
 1  2  3  4  5  17  18  19  20  21  22  23  24  25 0
 3-21G
 ****
 27  28  29  30  38  39  40  41  42  43  44  45 0
 3-21G
 ****


