%nproc=1
%NoSave
%Mem=1900MB
#P OB98/GEN NMR

erre ene a

0 1
  C      -58.534     235.052     381.315
  O      -58.645     234.204     382.433
  P      -59.443     232.825     382.432
  C      -60.828     233.258     384.609
  O      -59.850     232.472     383.948
  C      -60.437     233.504     386.075
  O      -61.409     234.400     386.670
  C      -60.470     232.197     386.890
  O      -59.389     232.057     387.803
  C      -61.875     232.196     387.470
  O      -62.028     231.355     388.605
  C      -62.120     233.687     387.713
  N      -66.372     234.269     390.430
  C      -65.082     234.046     390.872
  N      -64.943     233.767     392.185
  N      -64.034     234.065     390.086
  C      -64.343     234.244     388.779
  C      -65.580     234.478     388.227
  C      -66.726     234.486     389.112
  O      -67.901     234.570     388.745
  N      -65.522     234.548     386.856
  C      -64.252     234.324     386.578
  N      -63.505     234.105     387.713
  O      -58.897     231.732     381.578
  O      -60.866     233.274     381.805
  H      -62.925     231.489     388.952
  H      -61.197     232.519     381.274
  H      -67.150     234.157     391.073
  H      -63.834     234.284     385.575
  H      -61.704     234.009     388.673
  H      -62.558     231.814     386.701
  H      -65.742     233.597     392.784
  H      -60.358     231.326     386.229
  H      -64.059     233.357     392.483
  H      -59.461     233.995     386.114
  H      -61.764     232.699     384.555
  H      -60.975     234.214     384.081
  P      -57.945     231.425     387.550
  C      -58.557     228.971     387.973
  O      -57.809     230.088     388.417
  O      -56.921     232.423     388.276
  O      -57.573     231.270     386.109
  H      -56.118     232.527     387.733
  H      -58.598     228.233     388.777
  H      -58.061     228.522     387.108
  H      -59.577     229.266     387.707
  H      -57.950     235.910     381.575
  H      -59.510     235.365     381.007
  H      -58.058     234.526     380.514

 3  4  5  6  7  8  9  10  11  12  23  26  30  31 0
 6-311+G(2d,p)
 ****
 33  35  36  37  38 0
 6-311+G(2d,p)
 ****
 1  2  13  14  15  16  17  18  19  20  21  22  24  25 0
 3-21G
 ****
 27  28  29  32  34  39  40  41  42  43  44  45  46  47  48  49 0
 3-21G
 ****


