%nproc=1
%NoSave
%Mem=1900MB
#P OB98/GEN NMR

erre ene a

0 1
  C       30.017     158.108     -47.151
  O       29.574     159.301     -47.768
  H       30.591     158.368     -46.257
  H       30.663     157.552     -47.835
  H       29.164     157.491     -46.857
  P       28.568     159.146     -49.003
  C       29.679     159.945     -51.245
  O       29.460     158.890     -50.315
  C       30.637     160.973     -50.650
  O       31.835     160.343     -50.152
  C       31.154     161.988     -51.656
  O       30.169     162.914     -52.055
  C       32.296     162.606     -50.862
  O       31.808     163.562     -49.911
  C       32.872     161.361     -50.141
  N       34.105     160.884     -50.752
  C       35.243     161.666     -50.518
  O       35.168     162.682     -49.825
  N       36.429     161.291     -51.101
  C       36.483     160.221     -51.827
  N       37.683     159.911     -52.384
  C       35.314     159.354     -52.078
  C       34.169     159.745     -51.519
  O       28.044     160.642     -49.217
  O       27.486     158.132     -48.821
  H       31.288     164.214     -50.421
  H       28.757     161.294     -49.319
  H       35.406     158.465     -52.683
  H       33.264     159.166     -51.653
  H       33.081     161.589     -49.088
  H       33.007     163.130     -51.505
  H       31.587     161.475     -52.524
  H       30.131     161.462     -49.807
  H       38.458     160.539     -52.209
  H       28.734     160.417     -51.529
  H       37.838     159.121     -52.993
  H       30.111     159.504     -52.149
  P       30.291     163.685     -53.455
  C       30.856     166.165     -53.066
  O       31.374     164.849     -53.232
  O       28.999     164.142     -54.043
  O       31.093     162.648     -54.375
  H       31.975     162.405     -54.043
  H       31.665     166.852     -52.926
  H       30.214     166.190     -52.210
  H       30.300     166.442     -53.937

 6  7  8  9  10  11  12  13  14  15  16  26  30  31  32  33  35 0
 6-311+G(2d,p)
 ****
 37  38 0
 6-311+G(2d,p)
 ****
 1  2  3  4  5  17  18  19  20  21  22  23  24  25 0
 3-21G
 ****
 27  28  29  34  36  39  40  41  42  43  44  45  46 0
 3-21G
 ****


