%nproc=1
%NoSave
%Mem=1900MB
#P OB98/GEN NMR

erre ene a

0 1
  C     -137.437    -899.157     441.961
  O     -138.837    -899.357     441.790
  P     -139.683    -898.187     441.036
  C     -139.191    -896.477     442.892
  O     -139.102    -896.767     441.483
  C     -138.592    -895.077     443.181
  O     -139.121    -894.077     442.278
  C     -138.933    -894.597     444.575
  O     -138.134    -895.257     445.540
  C     -138.625    -893.097     444.422
  O     -137.218    -892.817     444.533
  C     -139.083    -892.817     442.947
  N     -140.360    -892.127     442.860
  C     -140.302    -890.727     442.836
  O     -139.214    -890.157     442.903
  N     -141.492    -890.047     442.736
  C     -142.620    -890.667     442.699
  N     -143.752    -889.927     442.583
  C     -142.722    -892.147     442.751
  C     -141.585    -892.807     442.839
  O     -141.172    -898.357     441.103
  O     -139.174    -898.337     439.500
  H     -136.823    -893.257     443.759
  H     -139.892    -898.067     438.904
  H     -143.692    -892.627     442.701
  H     -141.559    -893.887     442.916
  H     -138.349    -892.207     442.422
  H     -139.127    -892.497     445.158
  H     -139.979    -894.737     444.805
  H     -137.511    -895.157     443.034
  H     -143.675    -888.907     442.574
  H     -138.664    -897.237     443.443
  H     -144.664    -890.327     442.493
  H     -140.252    -896.527     443.179
  P     -138.868    -896.307     446.491
  C     -139.975    -894.367     447.819
  O     -140.135    -895.607     447.115
  O     -137.838    -896.457     447.719
  O     -139.116    -897.667     445.856
  H     -137.872    -897.347     448.069
  H     -140.952    -893.857     447.861
  H     -139.290    -893.677     447.219
  H     -139.561    -894.517     448.782
  H     -137.016    -900.000     442.468
  H     -137.271    -898.273     442.541
  H     -136.973    -899.048     441.003

 3  4  5  6  7  8  9  10  11  12  13  23  27  28  29  30  32 0
 6-311+G(2d,p)
 ****
 34  35 0
 6-311+G(2d,p)
 ****
 1  2  14  15  16  17  18  19  20  21  22  24  25  26 0
 3-21G
 ****
 31  33  36  37  38  39  40  41  42  43  44  45  46 0
 3-21G
 ****


