%nproc=1
%NoSave
%Mem=1900MB
#P OB98/GEN NMR

erre ene a

0 1
  C      432.730    -402.140    -140.981
  O      433.280    -400.824    -141.094
  P      432.457    -399.576    -140.513
  C      430.762    -397.825    -141.340
  O      431.554    -398.949    -141.685
  C      430.261    -397.056    -142.573
  O      431.340    -396.284    -143.171
  C      429.668    -397.945    -143.677
  O      428.586    -397.213    -144.266
  C      430.827    -398.069    -144.653
  O      430.408    -398.483    -145.944
  C      431.417    -396.646    -144.560
  N      432.777    -396.575    -145.067
  C      432.937    -396.517    -146.450
  O      431.969    -396.624    -147.198
  N      434.206    -396.355    -146.960
  C      435.230    -396.410    -146.159
  N      436.468    -396.239    -146.697
  C      435.107    -396.666    -144.709
  C      433.861    -396.715    -144.229
  O      433.260    -398.588    -139.735
  O      431.358    -400.288    -139.575
  H      429.740    -397.850    -146.281
  H      431.191    -399.715    -138.801
  H      435.983    -396.796    -144.090
  H      433.660    -396.877    -143.184
  H      430.788    -395.938    -145.127
  H      431.548    -398.804    -144.272
  H      429.291    -398.908    -143.314
  H      429.501    -396.337    -142.229
  H      436.544    -396.093    -147.696
  H      431.344    -397.153    -140.704
  H      437.315    -396.220    -146.121
  H      429.920    -398.167    -140.718
  P      427.084    -397.737    -144.058
  C      425.422    -399.260    -145.366
  O      426.672    -398.594    -145.347
  O      426.233    -396.390    -144.279
  O      426.772    -398.325    -142.709
  H      425.379    -396.473    -143.801
  H      425.194    -399.549    -146.397
  H      424.627    -398.603    -145.001
  H      425.469    -400.162    -144.744
  H      433.405    -402.847    -141.417
  H      431.792    -402.180    -141.494
  H      432.583    -402.377    -139.948

 3  4  5  6  7  8  9  10  11  12  13  23  27  28  29  30  32 0
 6-311+G(2d,p)
 ****
 34  35 0
 6-311+G(2d,p)
 ****
 1  2  14  15  16  17  18  19  20  21  22  24  25  26 0
 3-21G
 ****
 31  33  36  37  38  39  40  41  42  43  44  45  46 0
 3-21G
 ****


