%nproc=1
%NoSave
%Mem=1900MB
#P OB98/GEN NMR

erre ene a

0 1
  C     -165.788    -867.020     171.456
  O     -164.652    -866.807     170.656
  H     -166.235    -866.063     171.748
  H     -166.524    -867.592     170.884
  H     -165.521    -867.592     172.351
  P     -163.453    -865.948     171.307
  C     -161.876    -867.949     171.792
  O     -162.088    -866.755     171.038
  C     -161.019    -868.917     170.983
  O     -161.778    -869.364     169.826
  C     -159.679    -868.348     170.487
  O     -158.586    -869.127     170.966
  C     -159.735    -868.491     168.969
  O     -158.499    -868.902     168.390
  C     -160.830    -869.531     168.767
  N     -160.540    -870.841     163.836
  C     -160.029    -871.425     164.946
  N     -160.233    -871.089     166.244
  C     -161.085    -870.046     166.335
  C     -161.703    -869.368     165.294
  C     -161.383    -869.785     163.988
  N     -161.867    -869.170     162.861
  N     -162.506    -868.355     165.797
  C     -162.335    -868.381     167.097
  N     -161.472    -869.378     167.472
  O     -163.700    -866.119     172.888
  O     -163.424    -864.507     170.911
  H     -158.245    -869.740     168.827
  H     -163.648    -865.250     173.321
  H     -159.363    -872.258     164.770
  H     -162.771    -867.700     167.801
  H     -160.436    -870.562     168.829
  H     -160.028    -867.528     168.531
  H     -159.541    -867.294     170.780
  H     -160.833    -869.809     171.604
  H     -162.845    -868.418     172.007
  H     -161.499    -869.458     161.976
  H     -162.421    -868.325     162.970
  H     -161.390    -867.691     172.733
  P     -157.218    -868.330     171.325
  C     -156.586    -869.967     173.239
  O     -156.214    -869.377     172.002
  O     -157.667    -867.387     172.544
  O     -156.677    -867.544     170.174
  H     -157.103    -866.590     172.570
  H     -155.817    -870.639     173.559
  H     -157.502    -870.506     173.116
  H     -156.719    -869.201     173.974

 6  7  8  9  10  11  12  13  14  15  25  28  32  33  34  35 0
 6-311+G(2d,p)
 ****
 36  39  40 0
 6-311+G(2d,p)
 ****
 1  2  3  4  5  16  17  18  19  20  21  22  23  24 0
 3-21G
 ****
 26  27  29  30  31  37  38  41  42  43  44  45  46  47  48 0
 3-21G
 ****


