%nproc=1
%NoSave
%Mem=1900MB
#P OB98/GEN NMR

erre ene a

0 1
  C      218.638     -28.172    -214.444
  O      219.630     -29.005    -215.015
  P      219.293     -30.522    -215.407
  C      220.487     -31.466    -213.337
  O      219.262     -31.391    -214.057
  C      220.241     -31.989    -211.923
  O      219.299     -31.140    -211.215
  C      219.628     -33.379    -211.867
  O      220.567     -34.383    -212.206
  C      219.130     -33.424    -210.433
  O      220.200     -33.734    -209.525
  C      218.656     -31.969    -210.220
  N      217.204     -31.848    -210.285
  C      216.517     -32.049    -209.084
  O      217.123     -32.402    -208.070
  N      215.155     -31.867    -209.067
  C      214.523     -31.623    -210.175
  N      213.188     -31.386    -210.088
  C      215.197     -31.557    -211.490
  C      216.528     -31.652    -211.469
  O      220.121     -31.095    -216.502
  O      217.741     -30.473    -215.827
  H      217.641     -30.916    -216.692
  H      219.882     -33.523    -208.631
  H      214.617     -31.416    -212.390
  H      217.109     -31.593    -212.381
  H      219.000     -31.595    -209.250
  H      218.353     -34.179    -210.285
  H      218.774     -33.434    -212.552
  H      221.198     -31.967    -211.378
  H      212.764     -31.424    -209.163
  H      220.928     -30.470    -213.290
  H      212.676     -30.881    -210.803
  H      221.182     -32.125    -213.870
  P      220.065     -35.544    -213.195
  C      219.586     -37.128    -211.201
  O      219.081     -36.495    -212.361
  O      221.371     -36.440    -213.411
  O      219.520     -35.056    -214.502
  H      221.396     -36.773    -214.329
  H      218.748     -37.434    -210.582
  H      220.229     -36.453    -210.627
  H      220.157     -38.013    -211.493
  H      219.052     -27.204    -214.254
  H      218.298     -28.601    -213.525
  H      217.815     -28.081    -215.122

 3  4  5  6  7  8  9  10  11  12  13  24  27  28  29  30  32 0
 6-311+G(2d,p)
 ****
 34  35 0
 6-311+G(2d,p)
 ****
 1  2  14  15  16  17  18  19  20  21  22  23  25  26 0
 3-21G
 ****
 31  33  36  37  38  39  40  41  42  43  44  45  46 0
 3-21G
 ****


