%nproc=1
%NoSave
%Mem=1900MB
#P OB98/GEN NMR

erre ene a

0 1
  C      205.653    -372.927     175.735
  O      205.629    -374.340     175.861
  P      206.040    -374.967     177.280
  C      204.742    -375.296     179.494
  O      204.922    -374.496     178.331
  C      204.432    -374.429     180.710
  O      205.654    -373.762     181.132
  C      203.379    -373.339     180.455
  O      202.476    -373.288     181.572
  C      204.187    -372.055     180.461
  O      203.395    -370.927     180.822
  C      205.274    -372.416     181.473
  N      206.841    -367.672     182.218
  C      205.649    -368.271     182.561
  N      204.723    -367.475     183.142
  N      205.386    -369.535     182.362
  C      206.414    -370.216     181.805
  C      207.645    -369.737     181.425
  C      207.902    -368.324     181.601
  O      208.908    -367.715     181.228
  N      208.434    -370.739     180.913
  C      207.682    -371.819     180.980
  N      206.430    -371.546     181.466
  O      207.333    -374.112     177.686
  O      206.345    -376.428     177.267
  H      203.055    -371.088     181.724
  H      208.086    -374.711     177.850
  H      206.988    -366.691     182.379
  H      207.984    -372.806     180.653
  H      204.868    -372.423     182.491
  H      204.604    -371.886     179.462
  H      204.872    -366.505     183.359
  H      202.811    -373.467     179.529
  H      203.846    -367.901     183.426
  H      204.125    -375.083     181.534
  H      205.655    -375.868     179.681
  H      203.920    -375.997     179.314
  P      201.029    -372.655     181.279
  C      199.437    -372.712     179.215
  O      200.740    -372.932     179.726
  O      201.295    -371.080     181.338
  O      199.970    -373.095     182.233
  H      200.470    -370.603     181.563
  H      198.793    -372.203     179.937
  H      198.989    -373.672     178.954
  H      199.516    -372.096     178.310
  H      205.359    -372.652     174.744
  H      206.643    -372.569     175.925
  H      204.975    -372.494     176.441

 3  4  5  6  7  8  9  10  11  12  23  26  30  31  33  0
 6-311+G(2d,p)
 ****
 35  36  37  38 0
 6-311+G(2d,p)
 ****
 1  2  13  14  15  16  17  18  19  20  21  22  24  25  27  28  29 0
 3-21G
 ****
 32  34  39  40  41  42  43  44  45  46  47  48  49 0
 3-21G
 ****


