%nproc=1
%NoSave
%Mem=1900MB
#P OB98/GEN NMR

erre ene a

0 1
  C       -1.350      99.936     452.602
  O       -1.430     101.322     452.960
  P       -1.092     101.727     454.476
  C       -2.850     103.334     455.553
  O       -1.688     103.203     454.739
  C       -3.196     104.807     455.737
  O       -2.078     105.567     456.252
  C       -3.616     105.509     454.450
  O       -4.982     105.284     454.146
  C       -3.405     106.973     454.826
  O       -4.521     107.438     455.598
  C       -2.144     106.905     455.691
  N        1.744     110.100     455.141
  C        0.686     110.127     456.036
  N        0.657     111.154     456.909
  N       -0.264     109.241     456.053
  C       -0.101     108.248     455.135
  C        0.908     108.112     454.207
  C        1.943     109.126     454.182
  O        2.900     109.154     453.412
  N        0.729     106.991     453.438
  C       -0.371     106.438     453.913
  N       -0.927     107.172     454.945
  O        0.488     101.991     454.433
  O       -1.458     100.695     455.487
  H       -4.362     108.383     455.790
  H        0.874     101.814     455.310
  H        2.445     110.816     455.168
  H       -0.807     105.510     453.561
  H       -2.163     107.613     456.523
  H       -3.335     107.619     453.945
  H        1.383     111.857     456.983
  H       -2.950     105.237     453.618
  H       -0.095     111.177     457.585
  H       -4.032     104.878     456.464
  H       -2.684     102.863     456.535
  H       -3.677     102.772     455.096
  P       -5.336     104.206     453.009
  C       -7.373     105.487     452.027
  O       -6.912     104.356     452.722
  O       -5.205     102.813     453.789
  O       -4.447     104.253     451.803
  H       -4.912     102.109     453.170
  H       -8.424     105.347     451.787
  H       -6.813     105.626     451.098
  H       -7.274     106.388     452.656
  H       -1.600      99.820     451.568
  H       -2.035      99.373     453.200
  H       -0.355      99.581     452.770

 3  4  5  6  7  8  9  10  11  12  23  26  30  31 0
 6-311+G(2d,p)
 ****
 33  35  36  37  38 0
 6-311+G(2d,p)
 ****
 1  2  13  14  15  16  17  18  19  20  21  22  24  25 0
 3-21G
 ****
 27  28  29  32  34  39  40  41  42  43  44  45  46  47  48  49 0
 3-21G
 ****


