%nproc=1
%NoSave
%Mem=1900MB
#P OB98/GEN NMR

erre ene a

0 1
  C     -103.902     138.131      67.966
  O     -103.479     138.514      69.282
  P     -103.513     137.483      70.512
  C     -105.024     136.844      72.489
  O     -104.950     137.512      71.233
  C     -106.464     136.582      72.951
  O     -107.191     137.830      73.124
  C     -107.301     135.715      72.002
  O     -108.218     134.992      72.826
  C     -108.036     136.760      71.179
  O     -109.185     136.252      70.515
  C     -108.338     137.799      72.254
  N     -111.982     141.055      70.715
  C     -112.049     139.892      71.399
  N     -111.035     139.102      71.805
  C     -109.846     139.637      71.475
  C     -109.620     140.821      70.787
  C     -110.761     141.542      70.388
  N     -110.702     142.704      69.651
  N     -108.268     141.031      70.605
  C     -107.690     139.985      71.164
  N     -108.602     139.116      71.707
  O     -102.361     137.620      71.455
  O     -103.478     136.040      69.818
  H     -108.888     135.635      69.823
  H     -102.830     135.476      70.283
  H     -113.049     139.546      71.646
  H     -106.624     139.796      71.184
  H     -109.206     137.505      72.857
  H     -107.358     137.156      70.410
  H     -106.705     135.033      71.391
  H     -106.412     136.114      73.943
  H     -104.510     137.456      73.238
  H     -111.575     143.098      69.335
  H     -109.810     143.011      69.290
  H     -104.485     135.892      72.413
  P     -108.330     133.397      72.767
  C     -109.637     131.698      71.366
  O     -109.226     133.049      71.487
  O     -108.779     132.748      74.036
  O     -106.867     132.904      72.340
  H     -106.761     131.962      72.569
  H     -108.798     131.086      71.021
  H     -110.452     131.634      70.640
  H     -109.992     131.311      72.330
  H     -103.798     138.963      67.302
  H     -104.927     137.824      67.996
  H     -103.297     137.320      67.619

 3  4  5  6  7  8  9  10  11  12  22  25  29  30  31  32 0
 6-311+G(2d,p)
 ****
 33  36  37 0
 6-311+G(2d,p)
 ****
 1  2  13  14  15  16  17  18  19  20  21  23  24  26 0
 3-21G
 ****
 27  28  34  35  38  39  40  41  42  43  44  45  46  47  48 0
 3-21G
 ****


