%nproc=1
%NoSave
%Mem=1900MB
#P OB98/GEN NMR

erre ene a

0 1
  C     -201.318     734.459    -395.358
  O     -199.935     734.443    -395.074
  H     -201.685     733.429    -395.383
  H     -201.498     734.921    -396.330
  H     -201.856     735.008    -394.580
  P     -199.194     735.864    -394.995
  C     -196.930     735.872    -393.727
  O     -197.617     735.544    -394.926
  C     -196.770     734.632    -392.846
  O     -196.235     733.548    -393.654
  C     -195.825     734.836    -391.653
  O     -196.349     734.120    -390.527
  C     -194.540     734.167    -392.113
  O     -193.720     733.772    -391.018
  C     -195.106     733.009    -392.933
  N     -193.662     728.766    -395.224
  C     -194.745     729.018    -394.403
  N     -195.568     727.977    -394.134
  N     -194.993     730.185    -393.871
  C     -194.104     731.142    -394.236
  C     -192.993     731.018    -395.040
  C     -192.715     729.714    -395.600
  O     -191.767     729.422    -396.318
  N     -192.324     732.215    -395.139
  C     -193.033     733.053    -394.407
  N     -194.118     732.452    -393.841
  O     -199.530     736.378    -393.516
  O     -199.588     736.855    -396.039
  H     -194.305     733.402    -390.326
  H     -199.563     737.352    -393.487
  H     -193.517     727.844    -395.593
  H     -192.796     734.099    -394.250
  H     -195.462     732.185    -392.302
  H     -193.968     734.851    -392.746
  H     -195.454     727.059    -394.532
  H     -195.676     735.885    -391.387
  H     -196.370     728.146    -393.541
  H     -197.765     734.311    -392.514
  H     -197.500     736.633    -393.184
  H     -195.945     736.279    -393.978
  P     -197.053     734.972    -389.370
  C     -199.243     733.633    -388.989
  O     -197.962     733.990    -388.482
  O     -198.126     735.849    -390.177
  O     -196.114     735.843    -388.598
  H     -197.839     736.775    -390.202
  H     -199.731     732.980    -388.296
  H     -199.128     733.135    -389.929
  H     -199.832     734.516    -389.123

 6  7  8  9  10  11  12  13  14  15  26  29  33  34 0
 6-311+G(2d,p)
 ****
 36  38  39  40  41 0
 6-311+G(2d,p)
 ****
 1  2  3  4  5  16  17  18  19  20  21  22  23  24  25 0
 3-21G
 ****
 27  28  30  31  32  35  37  42  43  44  45  46  47 0
 3-21G
 ****
 48  49 0
 3-21G
 ****


