%nproc=1
%NoSave
%Mem=1900MB
#P OB98/GEN NMR

erre ene a

0 1
  C     -833.226    -107.828    -652.855
  O     -832.578    -107.817    -651.597
  H     -832.491    -107.812    -653.665
  H     -833.816    -108.747    -652.935
  H     -833.895    -106.966    -652.939
  P     -831.574    -106.599    -651.324
  C     -832.636    -105.570    -649.196
  O     -832.432    -105.453    -650.595
  C     -834.129    -105.543    -648.873
  O     -834.775    -106.705    -649.440
  C     -834.459    -105.572    -647.390
  O     -834.305    -104.301    -646.784
  C     -835.924    -105.996    -647.440
  O     -836.745    -104.853    -647.730
  C     -835.944    -106.979    -648.623
  N     -838.773    -111.157    -647.634
  C     -839.117    -109.902    -648.010
  N     -838.314    -108.840    -648.240
  C     -837.024    -109.176    -648.071
  C     -836.517    -110.404    -647.681
  C     -837.451    -111.425    -647.456
  N     -837.099    -112.700    -647.052
  N     -835.145    -110.376    -647.617
  C     -834.815    -109.141    -647.957
  N     -835.916    -108.372    -648.229
  O     -831.317    -105.992    -652.784
  O     -830.292    -106.965    -650.653
  H     -836.557    -104.189    -647.041
  H     -830.387    -105.683    -652.842
  H     -840.182    -109.724    -648.154
  H     -833.804    -108.774    -648.020
  H     -836.825    -106.822    -649.260
  H     -836.276    -106.426    -646.500
  H     -833.880    -106.342    -646.866
  H     -834.559    -104.653    -649.354
  H     -832.145    -104.729    -648.689
  H     -837.794    -113.433    -647.101
  H     -836.112    -112.895    -646.932
  H     -832.180    -106.501    -648.848
  P     -833.428    -104.222    -645.438
  C     -832.279    -102.047    -646.287
  O     -832.102    -103.388    -645.837
  O     -832.875    -105.720    -645.271
  O     -834.159    -103.767    -644.224
  H     -832.675    -105.906    -644.343
  H     -831.325    -101.618    -646.515
  H     -832.754    -101.473    -645.519
  H     -832.891    -102.043    -647.165

 6  7  8  9  10  11  12  13  14  15  25  28  32  33  34  35 0
 6-311+G(2d,p)
 ****
 36  39  40 0
 6-311+G(2d,p)
 ****
 1  2  3  4  5  16  17  18  19  20  21  22  23  24 0
 3-21G
 ****
 26  27  29  30  31  37  38  41  42  43  44  45  46  47  48 0
 3-21G
 ****


