%nproc=1
%NoSave
%Mem=1900MB
#P OB98/GEN NMR

erre ene a

0 1
  C     -373.851      21.514    -567.970
  O     -374.586      21.582    -569.183
  P     -373.902      21.218    -570.587
  C     -374.576      23.481    -571.611
  O     -373.498      22.626    -571.230
  C     -374.051      24.697    -572.360
  O     -373.193      25.449    -571.466
  C     -373.178      24.404    -573.584
  O     -373.909      24.162    -574.782
  C     -372.422      25.716    -573.718
  O     -373.267      26.702    -574.338
  C     -372.158      26.089    -572.256
  N     -367.108      26.530    -572.937
  C     -368.160      27.136    -573.541
  N     -369.475      26.948    -573.313
  C     -369.663      26.065    -572.323
  C     -368.696      25.374    -571.614
  C     -367.359      25.637    -571.953
  N     -366.290      25.037    -571.320
  N     -369.278      24.531    -570.682
  C     -370.571      24.727    -570.825
  N     -370.855      25.648    -571.792
  O     -374.712      20.317    -571.456
  O     -372.488      20.586    -570.185
  H     -372.858      27.574    -574.170
  H     -372.109      20.097    -570.943
  H     -367.904      27.863    -574.308
  H     -371.337      24.223    -570.250
  H     -372.233      27.171    -572.076
  H     -371.522      25.630    -574.339
  H     -372.464      23.596    -573.383
  H     -374.897      25.335    -572.628
  H     -375.092      23.812    -570.699
  H     -365.368      25.382    -571.538
  H     -366.473      24.500    -570.484
  H     -375.291      22.918    -572.218
  P     -373.064      23.745    -576.086
  C     -373.733      26.049    -577.134
  O     -372.713      25.119    -576.826
  O     -373.703      22.705    -576.932
  O     -371.656      23.294    -575.463
  H     -371.138      24.003    -575.054
  H     -373.275      26.975    -577.488
  H     -374.339      26.270    -576.251
  H     -374.372      25.651    -577.926
  H     -374.484      21.793    -567.154
  H     -373.017      22.183    -568.020
  H     -373.498      20.515    -567.822

 3  4  5  6  7  8  9  10  11  12  22  25  29  30  31  32 0
 6-311+G(2d,p)
 ****
 33  36  37 0
 6-311+G(2d,p)
 ****
 1  2  13  14  15  16  17  18  19  20  21  23  24  26 0
 3-21G
 ****
 27  28  34  35  38  39  40  41  42  43  44  45  46  47  48 0
 3-21G
 ****


