%nproc=1
%NoSave
%Mem=1900MB
#P OB98/GEN NMR

erre ene a

0 1
  C       -4.691     194.612     121.129
  O       -3.569     193.986     120.540
  P       -2.126     194.060     121.225
  C       -2.385     191.672     122.117
  O       -2.101     193.024     122.447
  C       -2.090     190.738     123.289
  O       -2.324     189.364     122.882
  C       -0.654     190.833     123.822
  O       -0.719     190.698     125.245
  C        0.021     189.624     123.202
  O        1.179     189.223     123.920
  C       -1.134     188.618     123.207
  N       -0.922     187.522     122.275
  C        0.219     186.741     122.466
  O        1.060     187.069     123.305
  N        0.384     185.620     121.691
  C       -0.419     185.412     120.692
  N       -0.261     184.256     119.993
  C       -1.487     186.355     120.310
  C       -1.710     187.355     121.160
  O       -1.658     195.435     121.569
  O       -1.147     193.376     120.156
  H       -0.406     193.984     119.967
  H        0.907     188.905     124.807
  H       -2.046     186.205     119.399
  H       -2.491     188.085     120.983
  H       -1.278     188.203     124.213
  H        0.322     189.857     122.174
  H       -0.170     191.781     123.569
  H       -2.804     190.963     124.092
  H        0.455     183.615     120.308
  H       -1.756     191.389     121.271
  H       -1.010     183.861     119.425
  H       -3.431     191.577     121.802
  P        0.079     191.760     126.148
  C       -1.960     193.353     125.961
  O       -0.557     193.205     125.886
  O        1.477     191.862     125.363
  O        0.324     191.375     127.570
  H        2.172     192.145     125.988
  H       -2.217     194.380     125.689
  H       -2.307     193.165     126.981
  H       -2.458     192.672     125.267
  H       -5.554     194.445     120.518
  H       -4.510     195.663     121.212
  H       -4.858     194.201     122.103

 3  4  5  6  7  8  9  10  11  12  13  24  27  28  29  30  32 0
 6-311+G(2d,p)
 ****
 34  35 0
 6-311+G(2d,p)
 ****
 1  2  14  15  16  17  18  19  20  21  22  23  25  26 0
 3-21G
 ****
 31  33  36  37  38  39  40  41  42  43  44  45  46 0
 3-21G
 ****


