%nproc=1
%NoSave
%Mem=1900MB
#P OB98/GEN NMR

erre ene a

0 1
  C     -140.469      10.391     -26.762
  O     -140.097      11.481     -27.584
  H     -141.496      10.546     -26.418
  H     -139.814      10.330     -25.888
  H     -140.426       9.455     -27.325
  P     -138.623      11.489     -28.213
  C     -136.292      11.921     -27.186
  O     -137.684      12.204     -27.126
  C     -135.488      13.163     -26.815
  O     -135.505      14.112     -27.899
  C     -136.018      13.899     -25.585
  O     -135.569      13.266     -24.397
  C     -135.402      15.272     -25.799
  O     -134.006      15.240     -25.447
  C     -135.563      15.447     -27.321
  N     -137.731      19.705     -29.020
  C     -136.420      19.463     -28.650
  N     -135.580      20.519     -28.700
  N     -135.982      18.297     -28.249
  C     -136.952      17.357     -28.182
  C     -138.285      17.481     -28.505
  C     -138.747      18.760     -29.003
  O     -139.896      19.014     -29.357
  N     -138.976      16.323     -28.248
  C     -138.055      15.490     -27.803
  N     -136.811      16.072     -27.732
  O     -138.491      12.060     -29.593
  O     -138.163       9.958     -28.148
  H     -133.963      15.016     -24.499
  H     -138.374       9.491     -28.977
  H     -138.010      20.630     -29.304
  H     -138.233      14.458     -27.525
  H     -134.747      16.033     -27.762
  H     -135.872      16.053     -25.201
  H     -135.920      21.473     -28.723
  H     -137.109      13.999     -25.608
  H     -134.628      20.373     -28.385
  H     -134.443      12.857     -26.671
  H     -136.062      11.607     -28.209
  H     -136.040      11.103     -26.501
  P     -136.587      12.933     -23.199
  C     -138.139      14.424     -21.765
  O     -136.969      14.358     -22.571
  O     -136.090      11.929     -22.213
  O     -137.942      12.504     -23.930
  H     -137.990      11.536     -24.138
  H     -138.274      15.426     -21.414
  H     -138.034      13.764     -20.929
  H     -138.989      14.132     -22.346

 6  7  8  9  10  11  12  13  14  15  26  29  33  34 0
 6-311+G(2d,p)
 ****
 36  38  39  40  41 0
 6-311+G(2d,p)
 ****
 1  2  3  4  5  16  17  18  19  20  21  22  23  24  25 0
 3-21G
 ****
 27  28  30  31  32  35  37  42  43  44  45  46  47 0
 3-21G
 ****
 48  49 0
 3-21G
 ****


