%nproc=1
%NoSave
%Mem=1900MB
#P OB98/GEN NMR

erre ene a

0 1
  C     -909.359     -44.463     118.777
  O     -908.432     -43.406     118.427
  P     -906.868     -43.646     118.246
  C     -905.658     -43.391     120.509
  O     -906.246     -44.286     119.566
  C     -905.644     -43.947     121.924
  O     -904.812     -45.170     121.981
  C     -905.093     -42.986     122.995
  O     -905.890     -43.190     124.172
  C     -903.666     -43.484     123.190
  O     -903.079     -43.071     124.421
  C     -903.921     -45.021     123.094
  N     -902.730     -45.809     122.941
  C     -902.144     -46.360     124.111
  O     -902.573     -46.122     125.226
  N     -901.040     -47.161     123.997
  C     -900.548     -47.412     122.803
  N     -899.470     -48.248     122.739
  C     -901.120     -46.869     121.541
  C     -902.196     -46.098     121.694
  O     -906.122     -42.435     117.785
  O     -906.736     -44.830     117.153
  H     -905.957     -44.654     116.598
  H     -903.079     -42.104     124.449
  H     -900.685     -47.105     120.595
  H     -902.679     -45.657     120.838
  H     -904.475     -45.328     124.004
  H     -903.055     -43.132     122.383
  H     -905.141     -41.939     122.710
  H     -906.648     -44.281     122.179
  H     -899.101     -48.621     123.609
  H     -906.235     -42.446     120.508
  H     -899.003     -48.515     121.866
  H     -904.642     -43.158     120.170
  P     -907.095     -42.177     124.503
  C     -906.180     -40.359     126.135
  O     -906.464     -40.729     124.792
  O     -907.549     -42.645     125.959
  O     -908.268     -42.233     123.571
  H     -908.495     -42.402     126.109
  H     -905.200     -39.912     126.171
  H     -906.187     -41.231     126.819
  H     -906.909     -39.634     126.473
  H     -910.349     -44.062     118.841
  H     -909.082     -44.882     119.722
  H     -909.331     -45.225     118.027

 3  4  5  6  7  8  9  10  11  12  13  24  27  28  29  30  32 0
 6-311+G(2d,p)
 ****
 34  35 0
 6-311+G(2d,p)
 ****
 1  2  14  15  16  17  18  19  20  21  22  23  25  26 0
 3-21G
 ****
 31  33  36  37  38  39  40  41  42  43  44  45  46 0
 3-21G
 ****


