%nproc=1
%NoSave
%Mem=1900MB
#P OB98/GEN NMR

erre ene a

0 1
  C      -69.989    -246.708    -898.920
  O      -69.917    -248.138    -898.830
  P      -68.483    -248.850    -898.850
  C      -68.785    -250.655    -896.990
  O      -68.145    -249.462    -897.390
  C      -68.078    -251.275    -895.760
  O      -66.799    -251.860    -896.170
  C      -67.785    -250.284    -894.630
  O      -67.872    -251.010    -893.400
  C      -66.340    -249.900    -894.890
  O      -65.679    -249.346    -893.760
  C      -65.773    -251.252    -895.350
  N      -64.501    -251.164    -896.080
  C      -63.343    -251.078    -895.350
  O      -63.293    -250.989    -894.120
  N      -62.174    -251.025    -896.070
  C      -62.077    -251.019    -897.450
  O      -61.017    -250.964    -898.040
  C      -63.363    -251.100    -898.170
  C      -64.491    -251.159    -897.460
  O      -67.482    -247.586    -898.910
  O      -68.236    -249.772    -900.000
  H      -64.749    -249.218    -894.010
  H      -66.794    -247.754    -899.580
  H      -61.327    -250.965    -895.550
  H      -63.322    -251.113    -899.250
  H      -65.450    -251.229    -897.990
  H      -65.643    -251.899    -894.470
  H      -66.308    -249.145    -895.700
  H      -68.466    -249.429    -894.620
  H      -68.693    -252.109    -895.390
  H      -68.763    -251.376    -897.800
  H      -69.826    -250.434    -896.750
  P      -69.275    -250.988    -892.610
  C      -70.152    -253.454    -892.340
  O      -70.127    -252.255    -893.100
  O      -70.010    -249.759    -893.330
  O      -69.149    -250.815    -891.120
  H      -69.912    -249.786    -894.300
  H      -70.219    -253.245    -891.270
  H      -69.234    -254.026    -892.550
  H      -71.009    -254.031    -892.650
  H      -71.013    -246.400    -898.893
  H      -69.544    -246.386    -899.838
  H      -69.463    -246.272    -898.096

 3  4  5  6  7  8  9  10  11  12  13  23  28  29  30  31  32 0
 6-311+G(2d,p)
 ****
 33  34 0
 6-311+G(2d,p)
 ****
 1  2  14  15  16  17  18  19  20  21  22  24  25  26 0
 3-21G
 ****
 27  35  36  37  38  39  40  41  42  43  44  45 0
 3-21G
 ****


