%nproc=1
%NoSave
%Mem=1900MB
#P OB98/GEN NMR

erre ene a

0 1
  C      723.531     610.190    -513.703
  O      724.367     610.385    -514.824
  H      724.160     609.997    -512.828
  H      722.880     609.329    -513.868
  H      722.928     611.081    -513.518
  P      723.671     610.841    -516.195
  C      724.992     613.076    -516.049
  O      723.730     612.449    -516.229
  C      724.835     614.372    -515.259
  O      724.002     615.287    -516.010
  C      724.200     614.173    -513.884
  O      724.834     615.059    -512.946
  C      722.761     614.614    -514.087
  O      722.136     615.052    -512.875
  C      722.914     615.705    -515.161
  N      721.678     615.895    -515.912
  C      720.691     616.672    -515.295
  O      720.880     617.146    -514.178
  N      719.488     616.846    -515.940
  C      719.259     616.214    -517.053
  N      718.035     616.402    -517.624
  C      720.253     615.333    -517.698
  C      721.423     615.219    -517.083
  O      722.120     610.546    -515.941
  O      724.191     610.181    -517.430
  H      721.198     615.287    -513.086
  H      721.666     610.294    -516.773
  H      720.002     614.814    -518.612
  H      722.213     614.587    -517.479
  H      723.202     616.662    -514.698
  H      722.172     613.774    -514.481
  H      724.272     613.151    -513.513
  H      725.824     614.841    -515.165
  H      717.383     617.005    -517.141
  H      725.413     613.315    -517.036
  H      717.737     615.930    -518.463
  H      725.675     612.381    -515.534
  P      725.527     614.385    -511.677
  C      727.681     614.059    -513.107
  O      726.759     613.475    -512.195
  O      724.452     613.302    -511.192
  O      725.863     615.342    -510.590
  H      724.032     613.597    -510.362
  H      728.436     613.343    -513.359
  H      728.137     614.914    -512.654
  H      727.164     614.359    -513.994

 6  7  8  9  10  11  12  13  14  15  16  26  30  31  32  33  35 0
 6-311+G(2d,p)
 ****
 37  38 0
 6-311+G(2d,p)
 ****
 1  2  3  4  5  17  18  19  20  21  22  23  24  25 0
 3-21G
 ****
 27  28  29  34  36  39  40  41  42  43  44  45  46 0
 3-21G
 ****


