%nproc=1
%NoSave
%Mem=1900MB
#P OB98/GEN NMR

erre ene a

0 1
  C     -657.380      -6.744    -244.868
  O     -657.663      -5.894    -245.968
  P     -656.488      -4.898    -246.434
  C     -658.321      -3.448    -247.607
  O     -657.190      -3.491    -246.748
  C     -658.977      -2.068    -247.528
  O     -659.461      -1.817    -246.199
  C     -658.037      -0.916    -247.870
  O     -657.923      -0.761    -249.272
  C     -658.726       0.253    -247.170
  O     -659.815       0.760    -247.973
  C     -659.255      -0.409    -245.888
  N     -656.947       2.882    -242.823
  C     -657.645       3.098    -243.987
  N     -657.796       4.387    -244.372
  N     -658.168       2.143    -244.721
  C     -657.927       0.904    -244.221
  C     -657.234       0.563    -243.085
  C     -656.712       1.631    -242.263
  O     -656.172       1.496    -241.170
  N     -657.179      -0.799    -242.922
  C     -657.873      -1.270    -243.940
  N     -658.361      -0.281    -244.749
  O     -656.087      -5.469    -247.871
  O     -655.323      -4.806    -245.498
  H     -660.181       1.556    -247.548
  H     -655.289      -6.028    -247.808
  H     -656.590       3.661    -242.296
  H     -658.065      -2.313    -244.120
  H     -660.226      -0.001    -245.586
  H     -658.048       1.094    -247.000
  H     -657.406       5.171    -243.875
  H     -657.051      -1.080    -247.418
  H     -658.304       4.564    -245.229
  H     -659.842      -2.071    -248.206
  H     -659.043      -4.208    -247.283
  H     -658.004      -3.674    -248.631
  P     -657.402       0.648    -249.824
  C     -658.834       0.524    -251.986
  O     -658.539       1.223    -250.794
  O     -656.212       0.237    -250.814
  O     -656.931       1.588    -248.771
  H     -655.503       0.908    -250.766
  H     -659.883       0.690    -252.248
  H     -658.660      -0.555    -251.878
  H     -658.207       0.906    -252.798
  H     -658.235      -7.352    -244.658
  H     -657.146      -6.150    -244.009
  H     -656.546      -7.371    -245.107

 3  4  5  6  7  8  9  10  11  12  23  26  30  31 0
 6-311+G(2d,p)
 ****
 33  35  36  37  38 0
 6-311+G(2d,p)
 ****
 1  2  13  14  15  16  17  18  19  20  21  22  24  25 0
 3-21G
 ****
 27  28  29  32  34  39  40  41  42  43  44  45  46  47  48  49 0
 3-21G
 ****


