%nproc=1
%NoSave
%Mem=1900MB
#P OB98/GEN NMR

erre ene a

0 1
  C     -892.190    -799.623    -890.610
  O     -893.260    -800.030    -891.420
  P     -894.170    -798.848    -891.970
  C     -893.000    -799.055    -894.280
  O     -893.470    -798.192    -893.280
  C     -892.940    -798.392    -895.670
  O     -894.260    -798.054    -896.150
  C     -892.080    -797.118    -895.660
  O     -891.430    -796.935    -896.930
  C     -893.190    -795.941    -895.580
  O     -892.650    -794.769    -895.990
  C     -894.280    -796.647    -896.410
  N     -895.550    -796.074    -896.170
  C     -895.800    -794.713    -896.650
  O     -894.870    -794.088    -897.150
  N     -897.050    -794.193    -896.510
  C     -898.000    -794.863    -895.910
  N     -899.210    -794.259    -895.800
  C     -897.750    -796.229    -895.330
  C     -896.580    -796.752    -895.530
  O     -894.090    -797.712    -890.870
  O     -895.610    -799.285    -892.190
  H     -892.530    -794.860    -897.090
  H     -894.970    -797.395    -890.640
  H     -898.580    -796.755    -894.860
  H     -896.280    -797.764    -895.170
  H     -894.030    -796.519    -897.530
  H     -893.550    -795.909    -894.460
  H     -891.340    -796.993    -894.870
  H     -892.470    -799.086    -896.390
  H     -899.310    -793.361    -896.210
  H     -893.650    -799.947    -894.370
  H     -900.000    -794.711    -895.340
  H     -892.000    -799.403    -893.990
  P     -890.040    -797.795    -897.110
  C     -890.650    -798.792    -899.450
  O     -890.510    -798.978    -898.080
  O     -889.890    -798.430    -895.720
  O     -888.880    -796.994    -897.600
  H     -889.060    -798.970    -895.740
  H     -890.820    -799.748    -900.000
  H     -889.700    -798.340    -899.870
  H     -891.460    -798.103    -899.710
  H     -891.638    -800.482    -890.290
  H     -892.568    -799.102    -889.755
  H     -891.547    -798.974    -891.167

 3  4  5  6  7  8  9  10  11  12  13  21  23  27  28  29  30  32 0
 6-311+G(2d,p)
 ****
 34  35 0
 6-311+G(2d,p)
 ****
 1  2  14  15  16  17  18  19  20  22  24  25  26 0
 3-21G
 ****
 31  33  36  37  38  39  40  41  42  43  44  45  46 0
 3-21G
 ****


