%nproc=1
%NoSave
%Mem=1900MB
#P OB98/GEN NMR

erre ene a

0 1
  C       88.401     356.666     164.279
  O       87.785     355.905     165.300
  P       87.614     354.329     165.047
  C       89.877     353.394     165.943
  O       88.475     353.576     166.164
  C       90.538     352.863     167.214
  O       90.737     353.933     168.155
  C       89.729     351.812     167.962
  O       89.796     350.554     167.302
  C       90.402     351.851     169.326
  O       91.635     351.109     169.286
  C       90.695     353.350     169.494
  N       89.195     354.650     174.217
  C       90.247     353.932     173.765
  N       90.566     353.610     172.494
  C       89.667     354.117     171.640
  C       88.540     354.852     171.946
  C       88.306     355.125     173.305
  N       87.232     355.855     173.758
  N       87.841     355.191     170.800
  C       88.555     354.676     169.820
  N       89.673     354.034     170.271
  O       88.451     354.085     163.700
  O       86.196     353.863     164.912
  H       92.149     351.444     168.522
  H       88.040     353.386     163.159
  H       90.923     353.563     174.535
  H       88.300     354.741     168.769
  H       91.660     353.543     169.969
  H       89.789     351.425     170.118
  H       88.682     352.120     168.051
  H       91.524     352.456     166.937
  H       90.325     354.361     165.686
  H       87.061     355.876     174.751
  H       86.498     356.087     173.091
  H       90.019     352.708     165.108
  P       88.587     349.520     167.549
  C       87.772     350.246     165.223
  O       88.076     349.153     166.072
  O       87.436     350.505     168.089
  O       88.922     348.369     168.429
  H       87.331     351.280     167.521
  H       87.491     349.866     164.251
  H       88.639     350.900     165.122
  H       86.925     350.813     165.642
  H       88.449     357.692     164.579
  H       87.829     356.584     163.379
  H       89.391     356.298     164.107

 3  4  5  6  7  8  9  10  11  12  22  25  29  30  31  32 0
 6-311+G(2d,p)
 ****
 33  36  37 0
 6-311+G(2d,p)
 ****
 1  2  13  14  15  16  17  18  19  20  21  23  24  26 0
 3-21G
 ****
 27  28  34  35  38  39  40  41  42  43  44  45  46  47  48 0
 3-21G
 ****


