%nproc=1
%NoSave
%Mem=1900MB
#P OB98/GEN NMR

erre ene a

0 1
  C      235.390     101.954    -320.173
  O      236.010     103.208    -319.982
  H      234.342     102.032    -319.870
  H      235.879     101.198    -319.554
  H      235.430     101.657    -321.224
  P      237.500     103.369    -320.557
  C      237.443     105.868    -319.855
  O      238.146     104.632    -319.808
  C      237.708     106.672    -318.584
  O      236.911     106.162    -317.490
  C      239.157     106.635    -318.108
  O      239.965     107.576    -318.803
  C      238.981     107.032    -316.652
  O      238.770     108.454    -316.558
  C      237.698     106.279    -316.273
  N      238.628     103.615    -312.061
  C      238.463     104.976    -312.230
  N      238.572     105.742    -311.124
  N      238.220     105.542    -313.385
  C      238.151     104.656    -314.408
  C      238.292     103.288    -314.364
  C      238.554     102.675    -313.082
  O      238.683     101.475    -312.869
  N      238.143     102.730    -315.605
  C      237.933     103.755    -316.404
  N      237.935     104.950    -315.727
  O      237.265     103.907    -322.050
  O      238.325     102.127    -320.553
  H      239.590     108.883    -316.869
  H      237.948     103.526    -322.633
  H      238.825     103.233    -311.152
  H      237.773     103.688    -317.470
  H      237.095     106.824    -315.541
  H      239.855     106.794    -316.044
  H      238.807     105.374    -310.213
  H      239.573     105.623    -318.167
  H      238.420     106.737    -311.216
  H      237.387     107.708    -318.769
  H      236.370     105.668    -319.939
  H      237.775     106.431    -320.734
  P      241.447     107.119    -319.221
  C      242.049     109.636    -318.971
  O      242.420     108.283    -318.703
  O      241.451     107.314    -320.808
  O      241.814     105.731    -318.824
  H      242.136     106.746    -321.215
  H      242.789     110.295    -318.568
  H      241.102     109.843    -318.517
  H      241.978     109.784    -320.028

 6  7  8  9  10  11  12  13  14  15  26  29  33  34 0
 6-311+G(2d,p)
 ****
 36  38  39  40  41 0
 6-311+G(2d,p)
 ****
 1  2  3  4  5  16  17  18  19  20  21  22  23  24  25 0
 3-21G
 ****
 27  28  30  31  32  35  37  42  43  44  45  46  47 0
 3-21G
 ****
 48  49 0
 3-21G
 ****


