%nproc=1
%NoSave
%Mem=1900MB
#P OB98/GEN NMR

erre ene a

0 1
  C     1830.613    -898.000     472.397
  O     1831.811    -897.580     471.790
  H     1830.293    -897.220     473.106
  H     1830.766    -898.920     472.952
  H     1829.834    -898.120     471.657
  P     1832.518    -898.550     470.734
  C     1832.600    -896.770     468.856
  O     1832.046    -898.030     469.295
  C     1831.535    -895.700     468.750
  O     1830.967    -895.450     470.054
  C     1832.080    -894.360     468.210
  O     1831.189    -893.870     467.188
  C     1832.018    -893.440     469.432
  O     1831.930    -892.070     469.074
  C     1830.802    -894.020     470.178
  N     1830.762    -893.570     471.557
  C     1830.040    -892.390     471.789
  O     1829.485    -891.790     470.849
  N     1829.991    -891.890     473.062
  C     1830.657    -892.490     473.991
  N     1830.587    -891.910     475.249
  C     1831.428    -893.700     473.798
  C     1831.453    -894.200     472.574
  O     1832.321    -900.000     470.977
  O     1834.077    -898.130     470.756
  H     1831.909    -891.520     469.902
  H     1834.618    -898.870     470.416
  H     1831.983    -894.170     474.623
  H     1831.997    -895.120     472.316
  H     1829.850    -893.750     469.672
  H     1832.925    -893.580     470.024
  H     1833.086    -894.430     467.805
  H     1830.728    -896.080     468.115
  H     1830.037    -891.050     475.327
  H     1833.110    -896.950     467.893
  H     1831.074    -892.260     476.051
  H     1833.352    -896.480     469.600
  P     1831.431    -894.450     465.717
  C     1829.276    -895.850     465.317
  O     1830.667    -895.850     465.622
  O     1832.979    -894.840     465.720
  O     1831.088    -893.470     464.637
  H     1833.470    -894.220     465.126
  H     1828.917    -896.858     465.290
  H     1829.120    -895.390     464.363
  H     1828.746    -895.302     466.068

 6  7  8  9  10  11  12  13  14  15  16  26  30  31  32  33  35 0
 6-311+G(2d,p)
 ****
 37  38 0
 6-311+G(2d,p)
 ****
 1  2  3  4  5  17  18  19  20  21  22  23  24  25 0
 3-21G
 ****
 27  28  29  34  36  39  40  41  42  43  44  45  46 0
 3-21G
 ****


