%nproc=1
%NoSave
%Mem=1900MB
#P OB98/GEN NMR

erre ene a

0 1
  C      107.494     335.851     134.508
  O      106.676     336.743     133.785
  P      106.069     336.326     132.362
  C      104.553     337.610     130.723
  O      104.838     337.321     132.090
  C      103.282     338.446     130.618
  O      102.134     337.727     131.144
  C      103.316     339.734     131.426
  O      104.239     340.726     131.031
  C      101.847     340.117     131.443
  O      101.467     340.771     130.231
  C      101.166     338.728     131.544
  N      100.648     338.473     132.885
  C       99.268     338.564     133.031
  O       98.500     338.838     132.108
  N       98.785     338.355     134.299
  C       99.534     338.118     135.411
  O       99.038     337.985     136.524
  C      100.989     338.049     135.198
  C      101.472     338.228     133.965
  O      105.743     334.880     132.210
  O      107.167     336.855     131.323
  H      101.866     341.663     130.239
  H      107.326     337.817     131.357
  H       97.787     338.429     134.426
  H      101.612     337.851     136.059
  H      102.542     338.184     133.783
  H      100.334     338.660     130.836
  H      101.611     340.802     132.263
  H      103.590     339.479     132.460
  H      103.086     338.639     129.560
  H      104.402     336.665     130.186
  H      105.407     338.120     130.269
  P      104.199     342.234     131.569
  C      105.806     343.830     132.828
  O      105.556     342.520     132.372
  O      102.919     342.690     132.190
  O      104.443     343.063     130.214
  H      103.977     343.919     130.277
  H      106.788     343.848     133.316
  H      105.049     344.131     133.564
  H      105.818     344.533     131.991
  H      107.798     336.310     135.426
  H      108.359     335.609     133.927
  H      106.946     334.957     134.721

 3  4  5  6  7  8  9  10  11  12  13  23  28  29  30  31  32 0
 6-311+G(2d,p)
 ****
 33  34 0
 6-311+G(2d,p)
 ****
 1  2  14  15  16  17  18  19  20  21  22  24  25  26  27 0
 3-21G
 ****
 35  36  37  38  39  40  41  42  43  44  45 0
 3-21G
 ****


