%nproc=1
%NoSave
%Mem=1900MB
#P OB98/GEN NMR

erre ene a

0 1
  C       18.800      64.401      91.215
  O       20.067      63.877      91.555
  H       18.321      63.768      90.463
  H       18.173      64.420      92.109
  H       18.902      65.420      90.832
  P       21.133      63.728      90.366
  C       21.511      62.086      88.394
  O       20.706      62.432      89.513
  C       21.261      60.631      88.005
  O       21.585      59.792      89.145
  C       19.816      60.319      87.578
  O       19.797      59.775      86.254
  C       19.359      59.240      88.548
  O       18.584      58.217      87.926
  C       20.666      58.693      89.111
  N       19.448      54.465      91.682
  C       19.928      54.642      90.433
  N       20.333      55.785      89.843
  C       20.231      56.820      90.697
  C       19.783      56.791      92.005
  C       19.361      55.544      92.494
  N       18.820      55.372      93.750
  N       19.815      58.057      92.563
  C       20.231      58.843      91.590
  N       20.476      58.142      90.439
  O       22.464      63.256      91.123
  O       21.363      64.964      89.563
  H       17.839      58.661      87.478
  H       23.220      63.794      90.821
  H       19.986      53.747      89.819
  H       20.328      59.920      91.650
  H       21.096      57.911      88.473
  H       18.749      59.705      89.334
  H       19.162      61.197      87.627
  H       21.960      60.365      87.201
  H       22.568      62.209      88.650
  H       18.435      54.467      93.976
  H       18.650      56.189      94.320
  H       21.271      62.758      87.563
  P       19.221      60.726      85.091
  C       16.914      61.072      83.933
  O       17.688      60.315      84.855
  O       19.956      60.174      83.781
  O       19.480      62.178      85.312
  H       20.032      60.885      83.115
  H       15.922      60.674      83.890
  H       17.362      61.019      82.963
  H       16.876      62.092      84.253

 6  7  8  9  10  11  12  13  14  15  25  28  32  33  34  35 0
 6-311+G(2d,p)
 ****
 36  39  40 0
 6-311+G(2d,p)
 ****
 1  2  3  4  5  16  17  18  19  20  21  22  23  24 0
 3-21G
 ****
 26  27  29  30  31  37  38  41  42  43  44  45  46  47  48 0
 3-21G
 ****


