%nproc=1
%NoSave
%Mem=1900MB
#P OB98/GEN NMR

erre ene a

0 1
  C     -598.074      72.404     255.204
  O     -598.703      71.135     255.233
  P     -599.525      70.723     256.547
  C     -601.773      71.559     255.532
  O     -600.829      71.659     256.601
  C     -602.807      70.476     255.822
  O     -603.578      70.832     257.011
  C     -603.817      70.243     254.674
  O     -604.153      68.855     254.686
  C     -605.026      71.050     255.125
  O     -606.232      70.621     254.492
  C     -604.977      70.809     256.628
  N     -609.561      72.905     257.523
  C     -609.183      71.868     256.746
  N     -607.931      71.363     256.570
  C     -607.046      72.045     257.291
  C     -607.276      73.146     258.104
  C     -608.612      73.567     258.224
  N     -609.002      74.616     259.023
  N     -606.089      73.603     258.678
  C     -605.162      72.787     258.201
  N     -605.694      71.827     257.386
  O     -598.606      71.287     257.729
  O     -599.785      69.259     256.697
  H     -606.178      70.859     253.559
  H     -598.216      70.534     258.233
  H     -609.974      71.364     256.195
  H     -604.113      72.841     258.418
  H     -605.376      69.837     256.914
  H     -604.878      72.123     254.896
  H     -603.458      70.530     253.688
  H     -602.280      69.538     256.048
  H     -601.228      71.293     254.626
  H     -609.992      74.775     259.160
  H     -608.329      74.997     259.705
  H     -602.262      72.530     255.380
  P     -604.508      68.173     253.272
  C     -601.968      67.688     253.002
  O     -603.156      68.204     252.402
  O     -605.438      69.289     252.551
  O     -605.205      66.861     253.362
  H     -606.049      68.846     251.918
  H     -601.353      67.220     252.208
  H     -602.196      66.927     253.769
  H     -601.406      68.507     253.438
  H     -597.570      72.531     254.269
  H     -597.365      72.469     256.003
  H     -598.812      73.170     255.318

 3  4  5  6  7  8  9  10  11  12  22  25  29  30  31  32 0
 6-311+G(2d,p)
 ****
 33  36  37 0
 6-311+G(2d,p)
 ****
 1  2  13  14  15  16  17  18  19  20  21  23  24  26 0
 3-21G
 ****
 27  28  34  35  38  39  40  41  42  43  44  45  46  47  48 0
 3-21G
 ****


