%nproc=1
%NoSave
%Mem=1900MB
#P OB98/GEN NMR

erre ene a

0 1
  C      -30.096    -187.869     212.435
  O      -29.270    -187.370     213.465
  P      -29.870    -186.494     214.662
  C      -29.017    -184.443     213.357
  O      -30.103    -185.013     214.080
  C      -28.830    -182.973     213.750
  O      -27.506    -182.536     213.308
  C      -29.875    -182.042     213.101
  O      -30.567    -181.199     214.022
  C      -29.067    -181.321     212.034
  O      -29.639    -180.100     211.607
  C      -27.684    -181.246     212.691
  N      -26.626    -180.937     211.733
  C      -25.918    -179.754     211.931
  O      -26.119    -178.970     212.854
  N      -24.983    -179.449     210.980
  C      -24.772    -180.129     209.819
  O      -23.987    -179.745     208.963
  C      -25.577    -181.349     209.646
  C      -26.436    -181.707     210.604
  O      -29.097    -186.537     215.936
  O      -31.372    -187.037     214.793
  H      -30.577    -180.266     211.398
  H      -31.914    -186.939     213.990
  H      -24.465    -178.596     211.110
  H      -25.438    -181.904     208.729
  H      -27.043    -182.600     210.504
  H      -27.659    -180.500     213.486
  H      -29.016    -181.975     211.155
  H      -30.673    -182.622     212.622
  H      -28.870    -182.911     214.839
  H      -29.235    -184.504     212.289
  H      -28.105    -185.021     213.539
  P      -31.918    -180.401     213.702
  C      -30.807    -178.120     213.135
  O      -31.570    -179.219     212.682
  O      -32.712    -179.991     214.897
  O      -32.751    -181.427     212.798
  H      -33.705    -181.271     212.923
  H      -31.080    -177.238     212.549
  H      -29.746    -178.329     212.977
  H      -30.988    -177.913     214.193
  H      -29.502    -188.425     211.739
  H      -30.568    -187.053     211.929
  H      -30.844    -188.508     212.856

 3  4  5  6  7  8  9  10  11  12  13  23  28  29  30  31  32 0
 6-311+G(2d,p)
 ****
 33  34 0
 6-311+G(2d,p)
 ****
 1  2  14  15  16  17  18  19  20  21  22  24  25  26  27 0
 3-21G
 ****
 35  36  37  38  39  40  41  42  43  44  45 0
 3-21G
 ****


