%nproc=1
%NoSave
%Mem=1900MB
#P OB98/GEN NMR

erre ene a

0 1
  C     -903.403     478.134    1282.795
  O     -902.273     478.971    1282.968
  P     -900.802     478.410    1282.614
  C     -898.542     479.504    1282.022
  O     -899.882     479.719    1282.434
  C     -897.999     480.743    1281.266
  O     -898.695     480.898    1280.010
  C     -898.154     482.067    1282.001
  O     -897.181     482.184    1283.031
  C     -898.021     483.059    1280.877
  O     -896.648     483.300    1280.573
  C     -898.712     482.300    1279.695
  N     -900.064     482.803    1279.452
  C     -900.150     484.011    1278.733
  O     -899.113     484.608    1278.394
  N     -901.391     484.545    1278.474
  C     -902.431     483.952    1278.912
  N     -903.652     484.515    1278.609
  C     -902.419     482.700    1279.676
  C     -901.200     482.207    1279.901
  O     -900.739     477.433    1281.497
  O     -900.311     477.814    1284.022
  H     -896.627     484.019    1279.895
  H     -900.750     476.962    1284.228
  H     -903.332     482.219    1280.022
  H     -901.058     481.260    1280.477
  H     -898.140     482.429    1278.787
  H     -898.501     484.025    1281.104
  H     -899.173     482.141    1282.439
  H     -896.928     480.546    1281.030
  H     -903.626     485.393    1278.118
  H     -898.526     478.639    1281.354
  H     -904.552     484.151    1278.931
  H     -897.913     479.304    1282.912
  P     -897.089     483.522    1283.894
  C     -895.894     484.301    1286.053
  O     -896.268     483.199    1285.228
  O     -898.371     484.248    1284.120
  O     -896.044     484.423    1283.068
  H     -896.414     485.348    1283.012
  H     -895.624     483.926    1287.036
  H     -896.685     485.035    1286.122
  H     -895.000     484.768    1285.607
  H     -904.288     478.666    1283.076
  H     -903.300     477.264    1283.409
  H     -903.475     477.840    1281.769

 3  4  5  6  7  8  9  10  11  12  13  23  27  28  29  30  32 0
 6-311+G(2d,p)
 ****
 34  35 0
 6-311+G(2d,p)
 ****
 1  2  14  15  16  17  18  19  20  21  22  24  25  26 0
 3-21G
 ****
 31  33  36  37  38  39  40  41  42  43  44  45  46 0
 3-21G
 ****


