%nproc=1
%NoSave
%Mem=1900MB
#P OB98/GEN NMR

erre ene a

0 1
  C      226.500    -590.905    -416.175
  O      227.312    -590.643    -415.042
  P      226.606    -590.630    -413.599
  C      227.931    -592.405    -412.229
  O      226.774    -592.106    -412.991
  C      227.583    -593.336    -411.067
  O      226.784    -592.595    -410.108
  C      226.780    -594.583    -411.458
  O      227.170    -595.629    -410.562
  C      225.349    -594.172    -411.169
  O      224.481    -595.289    -410.993
  C      225.545    -593.316    -409.923
  N      221.389    -592.282    -407.233
  C      222.203    -593.400    -407.212
  N      221.896    -594.347    -406.298
  N      223.227    -593.573    -408.007
  C      223.420    -592.535    -408.854
  C      222.665    -591.395    -408.997
  C      221.559    -591.200    -408.085
  O      220.868    -590.189    -408.012
  N      223.122    -590.614    -410.024
  C      224.200    -591.241    -410.447
  N      224.448    -592.385    -409.737
  O      225.052    -590.546    -413.965
  O      227.039    -589.536    -412.675
  H      223.570    -594.948    -410.892
  H      224.741    -589.618    -413.964
  H      220.628    -592.198    -406.582
  H      224.841    -590.911    -411.251
  H      225.630    -593.916    -409.009
  H      224.962    -593.573    -412.003
  H      221.143    -594.269    -405.633
  H      226.930    -594.892    -412.493
  H      222.495    -595.163    -406.240
  H      228.514    -593.624    -410.564
  H      228.338    -591.476    -411.821
  H      228.690    -592.859    -412.877
  P      227.720    -596.993    -411.197
  C      230.089    -596.333    -412.015
  O      228.746    -596.605    -412.363
  O      226.450    -597.554    -411.997
  O      228.206    -597.998    -410.203
  H      226.463    -598.527    -411.993
  H      230.720    -596.482    -412.894
  H      230.439    -596.988    -411.215
  H      230.175    -595.289    -411.691
  H      227.103    -590.882    -417.059
  H      225.735    -590.160    -416.245
  H      226.050    -591.871    -416.076

 3  4  5  6  7  8  9  10  11  12  23  26  30  31 0
 6-311+G(2d,p)
 ****
 33  35  36  37  38 0
 6-311+G(2d,p)
 ****
 1  2  13  14  15  16  17  18  19  20  21  22  24  25 0
 3-21G
 ****
 27  28  29  32  34  39  40  41  42  43  44  45  46  47  48  49 0
 3-21G
 ****


