%nproc=1
%NoSave
%Mem=1900MB
#P OB98/GEN NMR

erre ene a

0 1
  C     -146.993    -175.910    -691.919
  O     -145.663    -176.175    -691.528
  H     -147.117    -174.826    -692.017
  H     -147.694    -176.272    -691.164
  H     -147.215    -176.372    -692.886
  P     -145.165    -177.702    -691.478
  C     -145.023    -178.532    -689.037
  O     -145.847    -178.370    -690.189
  C     -144.896    -177.201    -688.298
  O     -146.197    -176.572    -688.174
  C     -144.380    -177.338    -686.872
  O     -142.985    -177.581    -686.845
  C     -144.811    -176.001    -686.279
  O     -143.882    -174.963    -686.615
  C     -146.171    -175.769    -686.980
  N     -147.296    -176.087    -686.099
  C     -147.682    -175.086    -685.206
  O     -147.137    -173.986    -685.143
  N     -148.691    -175.429    -684.341
  C     -149.238    -176.666    -684.201
  O     -149.953    -176.988    -683.250
  C     -148.833    -177.662    -685.206
  C     -147.895    -177.333    -686.093
  O     -143.693    -177.904    -691.593
  O     -145.949    -178.392    -692.692
  H     -145.340    -178.495    -693.450
  H     -143.160    -175.032    -685.965
  H     -148.947    -174.722    -683.664
  H     -149.304    -178.648    -685.170
  H     -147.556    -178.060    -686.827
  H     -146.262    -174.718    -687.297
  H     -144.880    -176.048    -685.191
  H     -144.915    -178.140    -686.355
  H     -144.247    -176.541    -688.893
  H     -144.027    -178.865    -689.360
  H     -145.462    -179.299    -688.386
  P     -142.308    -178.289    -685.568
  C     -141.001    -176.954    -683.795
  O     -142.281    -177.223    -684.371
  O     -141.007    -178.966    -685.841
  O     -143.408    -179.347    -685.084
  H     -142.988    -180.217    -684.970
  H     -141.107    -176.233    -683.012
  H     -140.345    -176.570    -684.548
  H     -140.593    -177.858    -683.394

 6  7  8  9  10  11  12  13  14  15  16  27  31  32  33  34  35 0
 6-311+G(2d,p)
 ****
 36  37 0
 6-311+G(2d,p)
 ****
 1  2  3  4  5  17  18  19  20  21  22  23  24  25 0
 3-21G
 ****
 26  28  29  30  38  39  40  41  42  43  44  45 0
 3-21G
 ****


