%nproc=1
%NoSave
%Mem=1900MB
#P OB98/GEN NMR

erre ene a

0 1
  C       27.515      -9.716     -36.352
  O       28.627     -10.572     -36.604
  P       30.002     -10.552     -35.796
  C       29.574     -12.593     -34.195
  O       30.309     -12.031     -35.274
  C       30.017     -14.039     -33.920
  O       29.334     -14.924     -34.859
  C       31.523     -14.241     -34.122
  O       32.127     -15.055     -33.123
  C       31.609     -14.727     -35.559
  O       32.824     -15.398     -35.857
  C       30.334     -15.555     -35.691
  N       29.966     -18.474     -39.863
  C       30.674     -18.696     -38.700
  N       31.393     -19.836     -38.637
  N       30.690     -17.866     -37.691
  C       29.993     -16.730     -37.913
  C       29.264     -16.387     -39.028
  C       29.212     -17.336     -40.120
  O       28.583     -17.197     -41.165
  N       28.682     -15.154     -38.885
  C       29.074     -14.743     -37.696
  N       29.867     -15.671     -37.062
  O       30.163      -9.444     -34.811
  O       31.115     -10.343     -36.945
  H       32.751     -15.759     -36.760
  H       31.840      -9.830     -36.534
  H       29.970     -19.157     -40.600
  H       28.805     -13.796     -37.242
  H       30.468     -16.578     -35.334
  H       31.563     -13.844     -36.210
  H       31.524     -20.456     -39.420
  H       32.058     -13.289     -34.032
  H       32.080     -19.887     -37.882
  H       29.706     -14.316     -32.907
  H       28.524     -12.579     -34.506
  H       29.664     -11.975     -33.301
  P       33.570     -14.911     -32.455
  C       32.522     -14.235     -30.214
  O       33.421     -15.106     -30.873
  O       33.936     -13.359     -32.590
  O       34.636     -15.749     -33.083
  H       34.740     -13.256     -33.136
  H       32.707     -14.286     -29.138
  H       31.494     -14.550     -30.412
  H       32.663     -13.204     -30.550
  H       26.727      -9.943     -37.039
  H       27.814      -8.696     -36.477
  H       27.169      -9.866     -35.351

 3  4  5  6  7  8  9  10  11  12  23  26  30  31 0
 6-311+G(2d,p)
 ****
 33  35  36  37  38 0
 6-311+G(2d,p)
 ****
 1  2  13  14  15  16  17  18  19  20  21  22  24  25 0
 3-21G
 ****
 27  28  29  32  34  39  40  41  42  43  44  45  46  47  48  49 0
 3-21G
 ****


