%nproc=1
%NoSave
%Mem=1900MB
#P OB98/GEN NMR

erre ene a

0 1
  C     -360.380     243.376     852.526
  O     -360.065     243.255     853.899
  H     -360.070     242.460     852.012
  H     -359.833     244.221     852.094
  H     -361.455     243.515     852.384
  P     -360.641     244.381     854.884
  C     -360.240     242.848     856.948
  O     -359.995     244.100     856.329
  C     -359.174     242.560     857.999
  O     -357.866     242.563     857.354
  C     -359.113     243.605     859.137
  O     -358.803     242.932     860.354
  C     -357.952     244.491     858.730
  O     -357.361     245.198     859.818
  C     -357.016     243.460     858.097
  N     -356.016     244.076     857.229
  C     -355.068     244.904     857.824
  O     -354.961     245.082     859.039
  N     -354.206     245.533     856.964
  C     -354.221     245.437     855.600
  O     -353.440     246.052     854.872
  C     -355.245     244.558     855.030
  C     -356.082     243.932     855.860
  O     -362.167     243.951     855.079
  O     -360.497     245.786     854.408
  H     -362.728     244.370     854.396
  H     -357.964     245.953     860.028
  H     -353.513     246.137     857.381
  H     -355.288     244.478     853.950
  H     -356.876     243.284     855.461
  H     -356.514     242.871     858.875
  H     -358.281     245.228     857.991
  H     -360.042     244.180     859.268
  H     -359.328     241.562     858.412
  H     -360.204     242.054     856.192
  H     -361.237     242.856     857.402
  P     -359.930     242.885     861.492
  C     -358.039     241.508     862.674
  O     -359.206     242.302     862.802
  O     -360.836     241.675     860.970
  O     -360.642     244.182     861.665
  H     -360.316     240.964     860.530
  H     -357.701     241.212     863.645
  H     -357.273     242.075     862.187
  H     -358.262     240.637     862.093

 6  7  8  9  10  11  12  13  14  15  16  27  31  32  33  34  35 0
 6-311+G(2d,p)
 ****
 36  37 0
 6-311+G(2d,p)
 ****
 1  2  3  4  5  17  18  19  20  21  22  23  24  25 0
 3-21G
 ****
 26  28  29  30  38  39  40  41  42  43  44  45 0
 3-21G
 ****


