%nproc=1
%NoSave
%Mem=1900MB
#P OB98/GEN NMR

erre ene a

0 1
  C      176.672     143.443     127.386
  O      176.787     142.037     127.474
  H      177.253     143.789     126.528
  H      177.062     143.914     128.291
  H      175.624     143.725     127.243
  P      176.092     141.339     128.745
  C      178.516     140.582     129.348
  O      177.303     141.172     129.791
  C      179.709     141.358     129.899
  O      179.650     142.742     129.487
  C      179.788     141.397     131.424
  O      180.285     140.197     131.994
  C      180.760     142.552     131.604
  O      182.095     142.114     131.284
  C      180.228     143.547     130.552
  N      179.233     144.478     131.092
  C      179.713     145.708     131.556
  O      180.911     145.976     131.506
  N      178.819     146.599     132.104
  C      177.557     146.302     132.163
  N      176.723     147.225     132.717
  C      177.009     145.026     131.675
  C      177.888     144.171     131.158
  O      175.845     139.837     128.254
  O      174.881     142.022     129.287
  H      182.246     141.292     131.786
  H      175.551     139.277     129.015
  H      175.950     144.816     131.757
  H      177.559     143.211     130.776
  H      181.049     144.130     130.112
  H      180.789     142.936     132.624
  H      178.826     141.672     131.870
  H      180.619     140.926     129.466
  H      177.138     148.066     133.096
  H      178.528     140.600     128.252
  H      175.758     147.026     132.944
  H      178.572     139.542     129.687
  P      179.257     139.311     132.851
  C      180.977     138.865     134.758
  O      179.718     139.416     134.382
  O      179.648     137.812     132.450
  O      177.809     139.600     132.599
  H      178.859     137.237     132.442
  H      181.134     139.017     135.805
  H      181.757     139.348     134.207
  H      180.986     137.817     134.544

 6  7  8  9  10  11  12  13  14  15  16  26  30  31  32  33  35 0
 6-311+G(2d,p)
 ****
 37  38 0
 6-311+G(2d,p)
 ****
 1  2  3  4  5  17  18  19  20  21  22  23  24  25 0
 3-21G
 ****
 27  28  29  34  36  39  40  41  42  43  44  45  46 0
 3-21G
 ****


