%nproc=1
%NoSave
%Mem=1900MB
#P OB98/GEN NMR

erre ene a

0 1
  C       23.452    -183.812     182.710
  O       23.911    -184.512     181.546
  P       23.889    -186.113     181.455
  C       21.414    -186.730     181.766
  O       22.492    -186.627     180.841
  C       20.062    -186.308     181.170
  O       20.221    -185.179     180.265
  C       19.331    -187.406     180.382
  O       17.935    -187.151     180.553
  C       19.758    -187.106     178.951
  O       18.909    -187.687     177.972
  C       19.736    -185.578     178.970
  N       19.823    -182.146     175.161
  C       18.936    -182.361     176.159
  N       19.001    -183.266     177.157
  C       20.140    -183.976     177.089
  C       21.147    -183.865     176.137
  C       20.947    -182.906     175.125
  N       21.826    -182.715     174.081
  N       22.150    -184.785     176.374
  C       21.756    -185.444     177.447
  N       20.547    -184.989     177.919
  O       24.285    -186.805     182.723
  O       24.948    -186.458     180.299
  H       17.991    -187.408     178.157
  H       25.525    -187.188     180.597
  H       18.056    -181.720     176.151
  H       22.284    -186.267     177.907
  H       18.712    -185.193     178.860
  H       20.772    -187.496     178.789
  H       19.586    -188.417     180.699
  H       19.432    -185.955     182.000
  H       21.642    -186.098     182.638
  H       21.557    -182.070     173.357
  H       22.605    -183.353     173.967
  H       21.350    -187.767     182.116
  P       16.881    -188.341     180.769
  C       16.868    -188.968     183.254
  O       16.282    -188.160     182.249
  O       17.406    -189.708     180.467
  O       15.646    -187.962     179.822
  H       15.104    -188.763     179.656
  H       16.501    -189.998     183.165
  H       16.597    -188.571     184.233
  H       17.963    -188.967     183.168
  H       23.555    -182.758     182.556
  H       24.035    -184.108     183.557
  H       22.423    -184.048     182.885

 3  4  5  6  7  8  9  10  11  12  22  25  29  30  31  32 0
 6-311+G(2d,p)
 ****
 33  36  37 0
 6-311+G(2d,p)
 ****
 1  2  13  14  15  16  17  18  19  20  21  23  24  26 0
 3-21G
 ****
 27  28  34  35  38  39  40  41  42  43  44  45  46  47  48 0
 3-21G
 ****


