%nproc=1
%NoSave
%Mem=1900MB
#P OB98/GEN NMR

erre ene a

0 1
  C       -4.144     -48.288     -21.855
  O       -2.772     -48.043     -21.603
  P       -1.761     -49.284     -21.605
  C       -0.991     -50.969     -23.429
  O       -2.022     -50.123     -22.947
  C       -1.566     -52.321     -23.854
  O       -2.021     -53.045     -22.672
  C       -2.760     -52.219     -24.815
  O       -2.699     -53.345     -25.701
  C       -3.945     -52.370     -23.880
  O       -5.138     -52.751     -24.547
  C       -3.392     -53.421     -22.911
  N       -4.154     -53.504     -21.667
  C       -5.434     -54.044     -21.737
  O       -5.955     -54.448     -22.775
  N       -6.143     -54.050     -20.565
  C       -5.744     -53.503     -19.382
  O       -6.473     -53.437     -18.399
  C       -4.382     -52.946     -19.367
  C       -3.661     -52.973     -20.490
  O       -2.337     -50.228     -20.449
  O       -0.332     -48.924     -21.372
  H       -4.915     -53.482     -25.152
  H       -1.821     -50.116     -19.629
  H       -7.068     -54.448     -20.595
  H       -4.025     -52.522     -18.437
  H       -2.662     -52.551     -20.514
  H       -3.374     -54.407     -23.393
  H       -4.133     -51.418     -23.372
  H       -2.786     -51.285     -25.384
  H       -0.762     -52.916     -24.308
  H       -0.256     -51.125     -22.638
  H       -0.481     -50.485     -24.269
  P       -3.511     -53.256     -27.085
  C       -3.251     -51.771     -29.219
  O       -2.984     -51.950     -27.845
  O       -4.962     -52.833     -26.551
  O       -3.509     -54.529     -27.865
  H       -4.923     -52.148     -25.864
  H       -4.225     -52.181     -29.497
  H       -2.472     -52.264     -29.806
  H       -3.241     -50.702     -29.445
  H       -4.684     -47.365     -21.819
  H       -4.529     -48.955     -21.113
  H       -4.256     -48.729     -22.823

 3  4  5  6  7  8  9  10  11  12  13  23  28  29  30  31  32 0
 6-311+G(2d,p)
 ****
 33  34 0
 6-311+G(2d,p)
 ****
 1  2  14  15  16  17  18  19  20  21  22  24  25  26 0
 3-21G
 ****
 27  35  36  37  38  39  40  41  42  43  44  45 0
 3-21G
 ****


