%nproc=1
%NoSave
%Mem=1900MB
#P OB98/GEN NMR

erre ene a

0 1
  C       57.451       0.025     -21.342
  O       56.392       0.602     -20.607
  H       58.030       0.825     -21.810
  H       57.053      -0.623     -22.127
  H       58.113      -0.548     -20.687
  P       55.496      -0.341     -19.672
  C       55.953      -1.678     -17.512
  O       56.325      -0.573     -18.320
  C       56.609      -1.586     -16.130
  O       58.059      -1.548     -16.305
  C       56.218      -0.330     -15.326
  O       56.279      -0.684     -13.938
  C       57.344       0.615     -15.707
  O       57.384       1.762     -14.899
  C       58.526      -0.361     -15.628
  N       59.770       0.113     -16.220
  C       60.963      -0.282     -15.623
  O       61.043      -1.007     -14.633
  N       62.107       0.195     -16.208
  C       62.172       0.995     -17.311
  O       63.228       1.365     -17.809
  C       60.879       1.385     -17.893
  C       59.756       0.929     -17.335
  O       54.972      -1.581     -20.313
  O       54.307       0.622     -19.197
  H       53.503       0.430     -19.715
  H       56.491       2.168     -14.875
  H       62.980      -0.084     -15.792
  H       60.895       2.028     -18.762
  H       58.788       1.192     -17.747
  H       58.710      -0.640     -14.585
  H       57.201       0.973     -16.729
  H       55.217       0.038     -15.566
  H       56.382      -2.501     -15.569
  H       56.280      -2.595     -18.015
  H       54.863      -1.698     -17.410
  P       55.120      -1.497     -13.182
  C       54.689      -4.020     -13.575
  O       55.580      -3.032     -13.068
  O       53.765      -1.320     -13.783
  O       55.153      -0.973     -11.670
  H       54.272      -1.082     -11.268
  H       55.117      -4.991     -13.436
  H       54.523      -3.849     -14.618
  H       53.757      -3.962     -13.052

 6  7  8  9  10  11  12  13  14  15  16  27  31  32  33  34  35 0
 6-311+G(2d,p)
 ****
 36  37 0
 6-311+G(2d,p)
 ****
 1  2  3  4  5  17  18  19  20  21  22  23  24  25 0
 3-21G
 ****
 26  28  29  30  38  39  40  41  42  43  44  45 0
 3-21G
 ****


