%nproc=1
%NoSave
%Mem=1900MB
#P OB98/GEN NMR

erre ene a

0 1
  C      420.896    -272.868      76.763
  O      422.100    -272.997      76.026
  P      422.865    -274.397      75.934
  C      424.007    -273.872      73.630
  O      424.137    -274.219      74.992
  C      425.408    -273.778      73.006
  O      426.070    -272.579      73.459
  C      426.277    -274.971      73.385
  O      426.212    -275.975      72.384
  C      427.650    -274.346      73.533
  O      428.277    -274.192      72.250
  C      427.301    -272.961      74.133
  N      427.078    -272.869      75.589
  C      428.086    -273.262      76.462
  O      429.191    -273.666      76.100
  N      427.771    -273.204      77.797
  C      426.591    -272.747      78.325
  O      426.238    -272.926      79.481
  C      425.686    -272.099      77.369
  C      425.958    -272.207      76.065
  O      421.869    -275.287      75.051
  O      423.181    -275.044      77.244
  H      429.139    -273.759      72.395
  H      421.327    -275.867      75.621
  H      428.445    -273.618      78.436
  H      424.810    -271.602      77.750
  H      425.280    -271.765      75.338
  H      428.068    -272.221      73.876
  H      428.309    -274.982      74.114
  H      425.966    -275.370      74.359
  H      425.307    -273.709      71.915
  H      423.481    -272.921      73.533
  H      423.415    -274.633      73.108
  P      425.834    -277.477      72.787
  C      424.167    -278.143      70.955
  O      425.507    -278.220      71.409
  O      424.793    -277.610      73.848
  O      427.238    -278.099      73.248
  H      427.307    -278.063      74.229
  H      424.121    -278.520      69.930
  H      423.816    -277.106      70.970
  H      423.529    -278.755      71.598
  H      420.546    -271.859      76.700
  H      421.076    -273.120      77.787
  H      420.157    -273.528      76.358

 3  4  5  6  7  8  9  10  11  12  13  23  28  29  30  31  32 0
 6-311+G(2d,p)
 ****
 33  34 0
 6-311+G(2d,p)
 ****
 1  2  14  15  16  17  18  19  20  21  22  24  25  26  27 0
 3-21G
 ****
 35  36  37  38  39  40  41  42  43  44  45 0
 3-21G
 ****


