%nproc=1
%NoSave
%Mem=1900MB
#P OB98/GEN NMR

erre ene a

0 1
  C       42.558    -370.786      95.861
  O       41.452    -369.937      96.075
  H       43.221    -370.317      95.129
  H       42.214    -371.743      95.462
  H       43.118    -370.954      96.785
  P       40.565    -370.144      97.389
  C       41.025    -367.744      98.221
  O       41.111    -369.133      98.513
  C       40.930    -366.900      99.492
  O       40.937    -365.494      99.158
  C       39.630    -367.147     100.258
  O       39.644    -368.261     101.130
  C       39.476    -365.845     101.037
  O       40.216    -365.893     102.269
  C       40.080    -364.807     100.088
  N       37.177    -360.607      99.916
  C       38.039    -361.028     100.910
  N       38.091    -360.260     102.021
  N       38.767    -362.110     100.821
  C       38.541    -362.827      99.696
  C       37.702    -362.519      98.649
  C       36.941    -361.288      98.731
  O       36.158    -360.874      97.882
  N       37.739    -363.487      97.674
  C       38.538    -364.410      98.165
  N       39.074    -364.043      99.378
  O       41.044    -371.570      97.946
  O       39.083    -370.121      97.173
  H       40.014    -365.091     102.781
  H       40.331    -371.981      98.466
  H       36.663    -359.751     100.025
  H       38.788    -365.345      97.672
  H       40.708    -364.087     100.629
  H       38.432    -365.653     101.304
  H       37.464    -359.486     102.183
  H       38.789    -367.232      99.562
  H       38.498    -360.667     102.865
  H       41.811    -367.087     100.117
  H       40.128    -367.606      97.613
  H       41.879    -367.432      97.616
  P       38.318    -368.668     101.933
  C       37.623    -370.598     100.331
  O       37.314    -369.332     100.873
  O       37.651    -367.250     102.256
  O       38.552    -369.465     103.170
  H       37.890    -366.960     103.153
  H       36.854    -370.890      99.647
  H       37.690    -371.317     101.120
  H       38.559    -370.546      99.815

 6  7  8  9  10  11  12  13  14  15  26  29  33  34 0
 6-311+G(2d,p)
 ****
 36  38  39  40  41 0
 6-311+G(2d,p)
 ****
 1  2  3  4  5  16  17  18  19  20  21  22  23  24  25 0
 3-21G
 ****
 27  28  30  31  32  35  37  42  43  44  45  46  47 0
 3-21G
 ****
 48  49 0
 3-21G
 ****


