%nproc=1
%NoSave
%Mem=1900MB
#P OB98/GEN NMR

erre ene a

0 1
  C        8.443      74.152    -451.851
  O        8.525      73.901    -450.463
  H        8.698      75.201    -452.031
  H        7.425      73.973    -452.207
  H        9.148      73.519    -452.395
  P        8.207      72.400    -449.972
  C        5.710      73.076    -449.687
  O        6.644      72.181    -450.281
  C        4.441      72.325    -449.275
  O        3.813      71.773    -450.457
  C        4.709      71.166    -448.304
  O        3.711      71.170    -447.281
  C        4.589      69.925    -449.172
  O        4.217      68.770    -448.414
  C        3.576      70.371    -450.236
  N        3.719      69.604    -451.473
  C        3.199      68.303    -451.476
  O        2.666      67.848    -450.458
  N        3.345      67.530    -452.600
  C        3.999      67.993    -453.616
  N        4.130      67.170    -454.695
  C        4.609      69.338    -453.644
  C        4.426      70.087    -452.554
  O        8.268      72.528    -448.378
  O        9.108      71.346    -450.531
  H        4.417      67.976    -448.961
  H        8.302      71.639    -447.946
  H        5.163      69.676    -454.510
  H        4.837      71.090    -452.485
  H        2.548      70.251    -449.866
  H        5.556      69.716    -449.645
  H        5.692      71.220    -447.841
  H        3.733      73.044    -448.846
  H        3.707      66.252    -454.636
  H        5.459      73.858    -450.407
  H        4.644      67.419    -455.527
  H        6.166      73.532    -448.800
  P        4.096      71.938    -445.925
  C        4.528      69.713    -444.661
  O        5.056      70.970    -445.070
  O        2.728      71.952    -445.097
  O        4.644      73.312    -446.150
  H        2.279      72.814    -445.191
  H        5.270      69.178    -444.105
  H        4.251      69.145    -445.524
  H        3.667      69.871    -444.046

 6  7  8  9  10  11  12  13  14  15  16  26  30  31  32  33  35 0
 6-311+G(2d,p)
 ****
 37  38 0
 6-311+G(2d,p)
 ****
 1  2  3  4  5  17  18  19  20  21  22  23  24  25 0
 3-21G
 ****
 27  28  29  34  36  39  40  41  42  43  44  45  46 0
 3-21G
 ****


