%nproc=1
%NoSave
%Mem=1900MB
#P OB98/GEN NMR

erre ene a

0 1
  C      358.765     395.759    -412.313
  O      358.733     396.446    -411.076
  H      359.395     394.873    -412.202
  H      359.186     396.400    -413.088
  H      357.757     395.442    -412.594
  P      357.874     397.801    -411.034
  C      360.078     399.095    -411.467
  O      358.907     398.975    -410.674
  C      360.877     400.324    -411.055
  O      360.115     401.532    -411.278
  C      361.300     400.342    -409.586
  O      362.475     399.574    -409.390
  C      361.521     401.829    -409.359
  O      362.813     402.256    -409.847
  C      360.394     402.456    -410.192
  N      358.207     405.556    -406.855
  C      359.449     405.627    -407.460
  N      360.249     406.651    -407.075
  N      359.873     404.768    -408.349
  C      358.985     403.778    -408.606
  C      357.718     403.613    -408.087
  C      357.248     404.589    -407.124
  O      356.143     404.620    -406.600
  N      357.112     402.504    -408.609
  C      358.014     401.980    -409.413
  N      359.178     402.712    -409.435
  O      357.005     397.649    -409.693
  O      357.006     398.047    -412.223
  H      363.496     401.993    -409.203
  H      356.158     398.117    -409.812
  H      357.937     406.261    -406.186
  H      357.877     401.081    -409.998
  H      360.690     403.408    -410.639
  H      361.489     402.082    -408.297
  H      360.123     407.118    -406.187
  H      360.481     399.991    -408.943
  H      361.170     406.695    -407.498
  H      361.760     400.375    -411.706
  H      359.791     399.190    -412.519
  H      360.688     398.192    -411.347
  P      362.474     398.510    -408.182
  C      362.853     400.141    -406.188
  O      363.402     399.129    -407.028
  O      363.353     397.306    -408.755
  O      361.121     398.058    -407.760
  H      363.200     396.501    -408.235
  H      363.588     400.450    -405.474
  H      361.998     399.753    -405.674
  H      362.561     400.980    -406.785

 6  7  8  9  10  11  12  13  14  15  26  29  33  34 0
 6-311+G(2d,p)
 ****
 36  38  39  40  41 0
 6-311+G(2d,p)
 ****
 1  2  3  4  5  16  17  18  19  20  21  22  23  24  25 0
 3-21G
 ****
 27  28  30  31  32  35  37  42  43  44  45  46  47 0
 3-21G
 ****
 48  49 0
 3-21G
 ****


