%nproc=1
%NoSave
%Mem=1900MB
#P OB98/GEN NMR

erre ene a

0 1
  C      546.311     -51.044     -80.931
  O      545.906     -50.417     -82.141
  P      544.632     -49.448     -82.110
  C      545.904     -47.126     -82.046
  O      545.025     -48.050     -81.443
  C      545.976     -45.859     -81.186
  O      546.487     -46.173     -79.868
  C      546.880     -44.779     -81.768
  O      546.190     -43.952     -82.694
  C      547.336     -44.040     -80.524
  O      546.302     -43.157     -80.057
  C      547.537     -45.217     -79.537
  N      548.837     -45.919     -79.548
  C      549.570     -46.034     -78.371
  O      549.219     -45.572     -77.286
  N      550.751     -46.720     -78.463
  C      551.189     -47.435     -79.538
  O      552.233     -48.080     -79.544
  C      550.306     -47.408     -80.708
  C      549.199     -46.659     -80.665
  O      543.660     -50.124     -81.041
  O      543.960     -49.268     -83.437
  H      546.086     -42.557     -80.787
  H      542.842     -50.431     -81.464
  H      551.332     -46.753     -77.641
  H      550.588     -48.000     -81.567
  H      548.539     -46.629     -81.526
  H      547.363     -44.888     -78.504
  H      548.200     -43.415     -80.735
  H      547.756     -45.235     -82.237
  H      544.959     -45.465     -81.062
  H      545.571     -46.876     -83.054
  H      546.899     -47.576     -82.142
  P      546.493     -44.088     -84.259
  C      544.186     -45.101     -84.760
  O      545.587     -45.315     -84.765
  O      547.930     -44.147     -84.649
  O      545.742     -42.820     -84.892
  H      546.373     -42.076     -85.024
  H      543.701     -45.936     -85.271
  H      543.940     -44.171     -85.284
  H      543.823     -45.057     -83.730
  H      547.170     -51.655     -81.116
  H      545.513     -51.653     -80.561
  H      546.554     -50.296     -80.206

 3  4  5  6  7  8  9  10  11  12  13  23  28  29  30  31  32 0
 6-311+G(2d,p)
 ****
 33  34 0
 6-311+G(2d,p)
 ****
 1  2  14  15  16  17  18  19  20  21  22  24  25  26  27 0
 3-21G
 ****
 35  36  37  38  39  40  41  42  43  44  45 0
 3-21G
 ****


