%nproc=1
%NoSave
%Mem=1900MB
#P OB98/GEN NMR

erre ene a

0 1
  C      278.306    -178.953      99.192
  O      278.694    -180.253      99.604
  P      277.665    -181.476      99.537
  C      277.948    -182.074      96.995
  O      277.127    -181.602      98.042
  C      277.178    -183.132      96.197
  O      277.110    -184.368      96.940
  C      275.745    -182.680      95.903
  O      275.665    -182.071      94.625
  C      274.962    -183.976      96.009
  O      275.066    -184.729      94.786
  C      275.714    -184.702      97.150
  N      275.364    -184.354      98.541
  C      274.029    -184.353      98.939
  O      273.100    -184.660      98.199
  N      273.793    -183.957     100.230
  C      274.746    -183.618     101.148
  O      274.517    -183.040     102.205
  C      276.129    -183.900     100.754
  C      276.375    -184.223      99.483
  O      276.398    -180.926     100.344
  O      278.168    -182.766     100.095
  H      276.015    -184.854      94.607
  H      276.400    -181.259     101.259
  H      272.819    -183.822     100.482
  H      276.908    -183.777     101.498
  H      277.397    -184.399      99.160
  H      275.614    -185.791      97.056
  H      273.902    -183.783      96.156
  H      275.398    -181.995      96.687
  H      277.712    -183.331      95.261
  H      278.870    -182.502      97.406
  H      278.240    -181.245      96.342
  P      274.388    -181.188      94.249
  C      275.270    -178.937      95.092
  O      274.365    -179.996      95.321
  O      273.107    -181.943      94.101
  O      274.821    -180.478      92.880
  H      274.451    -180.974      92.118
  H      275.034    -178.118      95.778
  H      275.188    -178.574      94.065
  H      276.291    -179.277      95.286
  H      279.129    -178.280      99.313
  H      277.483    -178.620      99.789
  H      278.013    -178.977      98.163

 3  4  5  6  7  8  9  10  11  12  13  23  28  29  30  31  32 0
 6-311+G(2d,p)
 ****
 33  34 0
 6-311+G(2d,p)
 ****
 1  2  14  15  16  17  18  19  20  21  22  24  25  26  27 0
 3-21G
 ****
 35  36  37  38  39  40  41  42  43  44  45 0
 3-21G
 ****


