%nproc=1
%NoSave
%Mem=1900MB
#P OB98/GEN NMR

erre ene a

0 1
  C      -46.015    -126.443     -53.496
  O      -46.574    -125.149     -53.335
  P      -45.891    -123.942     -54.148
  C      -47.784    -123.506     -55.877
  O      -46.477    -124.017     -55.643
  C      -47.744    -122.269     -56.782
  O      -47.321    -122.674     -58.109
  C      -49.086    -121.548     -56.914
  O      -48.825    -120.145     -56.977
  C      -49.610    -122.012     -58.258
  O      -50.532    -121.080     -58.819
  C      -48.300    -122.181     -59.047
  N      -48.453    -123.086     -60.182
  C      -48.032    -122.611     -61.432
  O      -47.636    -121.451     -61.546
  N      -48.124    -123.441     -62.521
  C      -48.685    -124.604     -62.399
  N      -48.747    -125.394     -63.505
  C      -49.251    -125.094     -61.123
  C      -49.083    -124.303     -60.066
  O      -44.379    -124.436     -54.319
  O      -45.981    -122.612     -53.479
  H      -50.814    -121.417     -59.698
  H      -43.763    -123.681     -54.323
  H      -49.740    -126.057     -61.083
  H      -49.443    -124.590     -59.086
  H      -47.947    -121.211     -59.419
  H      -50.119    -122.979     -58.149
  H      -49.765    -121.759     -56.082
  H      -46.980    -121.584     -56.393
  H      -48.365    -125.027     -64.369
  H      -48.226    -123.212     -54.921
  H      -49.168    -126.314     -63.503
  H      -48.405    -124.286     -56.315
  P      -49.989    -119.147     -56.501
  C      -49.394    -119.671     -54.057
  O      -50.409    -119.668     -55.043
  O      -51.224    -119.653     -57.392
  O      -49.774    -117.679     -56.662
  H      -51.995    -119.075     -57.240
  H      -49.847    -119.915     -53.090
  H      -48.925    -118.688     -53.988
  H      -48.645    -120.432     -54.294
  H      -46.563    -127.145     -52.903
  H      -44.992    -126.432     -53.181
  H      -46.068    -126.729     -54.526

 3  4  5  6  7  8  9  10  11  12  13  21  23  27  28  29  30  32 0
 6-311+G(2d,p)
 ****
 34  35 0
 6-311+G(2d,p)
 ****
 1  2  14  15  16  17  18  19  20  22  24  25  26 0
 3-21G
 ****
 31  33  36  37  38  39  40  41  42  43  44  45  46 0
 3-21G
 ****


