%nproc=1
%NoSave
%Mem=1900MB
#P OB98/GEN NMR

erre ene a

0 1
  C      -79.296    -348.659    -430.318
  O      -78.506    -349.557    -431.064
  H      -80.207    -349.181    -430.006
  H      -79.588    -347.801    -430.935
  H      -78.767    -348.317    -429.430
  P      -77.116    -349.046    -431.691
  C      -78.240    -348.022    -433.767
  O      -77.502    -347.752    -432.580
  C      -77.935    -346.984    -434.847
  O      -78.551    -345.716    -434.493
  C      -76.433    -346.716    -435.049
  O      -76.128    -346.722    -436.452
  C      -76.236    -345.315    -434.501
  O      -75.105    -344.647    -435.056
  C      -77.602    -344.687    -434.819
  N      -77.824    -343.461    -434.066
  C      -77.958    -342.285    -434.822
  O      -77.886    -342.334    -436.057
  N      -78.107    -341.088    -434.172
  C      -78.079    -341.058    -432.872
  N      -78.213    -339.834    -432.293
  C      -77.910    -342.270    -432.028
  C      -77.804    -343.424    -432.691
  O      -76.331    -350.093    -432.416
  O      -76.321    -348.402    -430.460
  H      -74.320    -345.230    -434.972
  H      -75.360    -348.392    -430.674
  H      -77.893    -342.182    -430.960
  H      -77.676    -344.357    -432.159
  H      -77.693    -344.464    -435.891
  H      -76.097    -345.372    -433.410
  H      -75.795    -347.440    -434.541
  H      -78.410    -347.300    -435.788
  H      -78.304    -339.031    -432.898
  H      -79.304    -348.026    -433.526
  H      -78.172    -339.684    -431.288
  H      -77.947    -349.011    -434.140
  P      -75.478    -348.083    -437.025
  C      -73.150    -347.214    -437.806
  O      -73.883    -347.982    -436.854
  O      -75.705    -347.960    -438.604
  O      -76.100    -349.323    -436.468
  H      -76.372    -348.612    -438.897
  H      -72.109    -347.242    -437.561
  H      -73.494    -346.201    -437.788
  H      -73.297    -347.623    -438.784

 6  7  8  9  10  11  12  13  14  15  16  26  30  31  32  33  35 0
 6-311+G(2d,p)
 ****
 37  38 0
 6-311+G(2d,p)
 ****
 1  2  3  4  5  17  18  19  20  21  22  23  24  25 0
 3-21G
 ****
 27  28  29  34  36  39  40  41  42  43  44  45  46 0
 3-21G
 ****


