%nproc=1
%NoSave
%Mem=1900MB
#P OB98/GEN NMR

erre ene a

0 1
  C       38.289    -111.886     128.930
  O       37.745    -110.740     129.588
  P       38.264    -110.350     131.050
  C       38.275    -107.815     130.542
  O       37.807    -108.853     131.394
  C       37.471    -106.534     130.785
  O       36.104    -106.671     130.327
  C       37.350    -106.182     132.262
  O       38.528    -105.755     132.914
  C       36.166    -105.231     132.272
  O       36.557    -103.901     131.935
  C       35.274    -105.834     131.161
  N       34.134    -106.580     131.695
  C       32.991    -105.835     131.967
  O       32.927    -104.617     131.822
  N       31.923    -106.541     132.453
  C       31.900    -107.878     132.720
  O       30.922    -108.456     133.177
  C       33.145    -108.607     132.434
  C       34.189    -107.936     131.942
  O       39.694    -110.661     131.334
  O       37.308    -111.225     132.005
  H       35.791    -103.320     132.104
  H       37.857    -111.580     132.731
  H       31.082    -106.019     132.649
  H       33.165    -109.669     132.638
  H       35.116    -108.455     131.725
  H       34.880    -105.040     130.514
  H       35.693    -105.186     133.258
  H       37.031    -107.088     132.798
  H       37.929    -105.722     130.217
  H       38.187    -108.124     129.499
  H       39.342    -107.656     130.729
  P       39.132    -106.485     134.207
  C       41.252    -107.129     132.862
  O       40.724    -106.569     134.043
  O       38.429    -107.708     134.695
  O       38.979    -105.334     135.319
  H       38.807    -105.759     136.180
  H       42.343    -107.120     132.930
  H       40.951    -106.541     131.992
  H       40.918    -108.163     132.747
  H       37.831    -111.996     127.969
  H       38.098    -112.759     129.518
  H       39.345    -111.760     128.810

 3  4  5  6  7  8  9  10  11  12  13  23  28  29  30  31  32 0
 6-311+G(2d,p)
 ****
 33  34 0
 6-311+G(2d,p)
 ****
 1  2  14  15  16  17  18  19  20  21  22  24  25  26  27 0
 3-21G
 ****
 35  36  37  38  39  40  41  42  43  44  45 0
 3-21G
 ****


