%nproc=1
%NoSave
%Mem=1900MB
#P OB98/GEN NMR

erre ene a

0 1
  C      330.727    -246.071    -403.814
  O      331.532    -244.948    -404.104
  H      330.832    -246.313    -402.754
  H      331.055    -246.928    -404.405
  H      329.676    -245.854    -404.025
  P      331.454    -244.365    -405.598
  C      332.493    -242.026    -405.184
  O      332.665    -243.323    -405.744
  C      333.842    -241.410    -404.822
  O      334.310    -242.002    -403.570
  C      334.942    -241.634    -405.872
  O      335.780    -240.470    -405.890
  C      335.745    -242.783    -405.285
  O      337.070    -242.851    -405.808
  C      335.666    -242.438    -403.799
  N      339.395    -244.487    -401.113
  C      339.344    -243.298    -401.815
  N      340.456    -242.536    -401.798
  N      338.289    -242.894    -402.473
  C      337.235    -243.740    -402.372
  C      337.160    -244.945    -401.720
  C      338.344    -245.396    -401.014
  O      338.457    -246.447    -400.395
  N      335.925    -245.517    -401.880
  C      335.254    -244.660    -402.631
  N      336.008    -243.565    -402.956
  O      330.157    -243.431    -405.542
  O      331.361    -245.390    -406.678
  H      337.023    -243.266    -406.695
  H      329.370    -243.928    -405.836
  H      340.234    -244.758    -400.633
  H      334.234    -244.785    -402.966
  H      336.338    -241.619    -403.523
  H      335.245    -243.736    -405.492
  H      341.290    -242.761    -401.276
  H      334.569    -241.836    -406.880
  H      340.422    -241.638    -402.275
  H      333.697    -240.338    -404.627
  H      331.880    -242.110    -404.277
  H      331.973    -241.388    -405.908
  P      335.523    -239.373    -407.026
  C      335.065    -237.070    -405.905
  O      336.019    -237.954    -406.474
  O      333.924    -239.216    -407.016
  O      336.028    -239.757    -408.379
  H      333.612    -238.938    -407.898
  H      335.555    -236.173    -405.588
  H      334.601    -237.540    -405.063
  H      334.321    -236.831    -406.635

 6  7  8  9  10  11  12  13  14  15  26  29  33  34 0
 6-311+G(2d,p)
 ****
 36  38  39  40  41 0
 6-311+G(2d,p)
 ****
 1  2  3  4  5  16  17  18  19  20  21  22  23  24  25 0
 3-21G
 ****
 27  28  30  31  32  35  37  42  43  44  45  46  47 0
 3-21G
 ****
 48  49 0
 3-21G
 ****


