%nproc=1
%NoSave
%Mem=1900MB
#P OB98/GEN NMR

erre ene a

0 1
  C      789.492    -891.191    -582.828
  O      790.278    -891.831    -583.809
  H      789.883    -891.461    -581.836
  H      788.453    -891.521    -582.890
  H      789.550    -890.101    -582.929
  P      790.011    -891.471    -585.354
  C      787.875    -892.901    -585.355
  O      789.135    -892.661    -585.975
  C      787.179    -894.061    -586.057
  O      787.057    -893.811    -587.462
  C      787.930    -895.391    -585.948
  O      787.805    -895.971    -584.656
  C      787.279    -896.191    -587.080
  O      786.037    -896.751    -586.653
  C      787.046    -895.091    -588.130
  N      788.069    -895.131    -589.197
  C      787.793    -895.991    -590.262
  O      786.790    -896.671    -590.357
  N      788.788    -896.081    -591.215
  C      790.041    -895.521    -591.136
  O      790.965    -895.821    -591.857
  C      790.235    -894.581    -589.992
  C      789.244    -894.451    -589.108
  O      791.238    -891.111    -586.139
  O      788.979    -890.251    -585.281
  H      789.461    -889.411    -585.435
  H      786.239    -897.291    -585.857
  H      788.625    -896.721    -591.970
  H      791.181    -894.051    -589.947
  H      789.388    -893.781    -588.252
  H      786.066    -895.201    -588.596
  H      787.932    -897.001    -587.410
  H      788.984    -895.241    -586.186
  H      786.161    -894.171    -585.640
  H      787.261    -892.001    -585.449
  H      788.029    -893.111    -584.285
  P      789.070    -896.581    -583.901
  C      788.659    -899.011    -584.696
  O      788.737    -898.131    -583.583
  O      789.590    -895.801    -582.757
  O      790.180    -896.721    -585.068
  H      791.012    -896.321    -584.745
  H      788.435    -900.000    -584.354
  H      789.596    -899.017    -585.213
  H      787.888    -898.680    -585.359

 6  7  8  9  10  11  12  13  14  15  16  27  31  32  33  34  35 0
 6-311+G(2d,p)
 ****
 36  37 0
 6-311+G(2d,p)
 ****
 1  2  3  4  5  17  18  19  20  21  22  23  24  25 0
 3-21G
 ****
 26  28  29  30  38  39  40  41  42  43  44  45 0
 3-21G
 ****


