%nproc=1
%NoSave
%Mem=1900MB
#P OB98/GEN NMR

erre ene a

0 1
  C      146.457    -406.549    -185.552
  O      145.298    -405.733    -185.797
  P      145.326    -404.664    -187.003
  C      143.636    -403.962    -188.878
  O      143.836    -404.499    -187.574
  C      142.145    -403.710    -189.124
  O      141.431    -404.970    -189.213
  C      141.441    -402.936    -188.017
  O      141.735    -401.550    -188.071
  C      139.984    -403.262    -188.304
  O      139.458    -402.406    -189.334
  C      140.075    -404.720    -188.795
  N      139.633    -405.686    -187.796
  C      138.337    -405.536    -187.315
  O      137.597    -404.616    -187.643
  N      137.926    -406.473    -186.399
  C      138.697    -407.487    -185.881
  O      138.277    -408.280    -185.056
  C      140.088    -407.542    -186.375
  C      140.483    -406.652    -187.289
  O      146.042    -405.503    -188.168
  O      146.069    -403.400    -186.726
  H      139.561    -401.489    -189.011
  H      146.500    -404.891    -188.767
  H      136.987    -406.406    -186.062
  H      140.735    -408.309    -185.972
  H      141.506    -406.685    -187.660
  H      139.454    -404.852    -189.700
  H      139.338    -403.131    -187.423
  H      141.717    -403.346    -187.044
  H      142.047    -403.190    -190.087
  H      144.015    -404.672    -189.620
  H      144.197    -403.026    -188.960
  P      142.497    -400.923    -186.803
  C      142.942    -398.438    -186.102
  O      142.155    -399.358    -186.840
  O      144.024    -401.024    -187.282
  O      142.193    -401.637    -185.528
  H      144.114    -400.910    -188.249
  H      143.981    -398.761    -186.050
  H      142.531    -398.355    -185.082
  H      142.887    -397.458    -186.592
  H      146.268    -407.197    -184.722
  H      147.295    -405.921    -185.331
  H      146.671    -407.135    -186.421

 3  4  5  6  7  8  9  10  11  12  13  23  28  29  30  31  32 0
 6-311+G(2d,p)
 ****
 33  34 0
 6-311+G(2d,p)
 ****
 1  2  14  15  16  17  18  19  20  21  22  24  25  26 0
 3-21G
 ****
 27  35  36  37  38  39  40  41  42  43  44  45 0
 3-21G
 ****


