%nproc=1
%NoSave
%Mem=1900MB
#P OB98/GEN NMR

erre ene a

0 1
  C       96.173    -527.122     289.985
  O       96.633    -525.808     289.699
  P       96.462    -525.272     288.195
  C       96.778    -522.909     287.077
  O       96.777    -523.699     288.255
  C       96.146    -521.534     287.353
  O       94.725    -521.683     287.548
  C       96.663    -520.854     288.615
  O       97.940    -520.273     288.422
  C       95.542    -519.849     288.885
  O       95.693    -518.697     288.037
  C       94.294    -520.655     288.466
  N       93.563    -521.223     289.592
  C       92.177    -521.079     289.569
  O       91.581    -520.508     288.651
  N       91.503    -521.595     290.644
  C       92.063    -522.167     291.751
  O       91.410    -522.575     292.703
  C       93.530    -522.263     291.734
  C       94.202    -521.794     290.679
  O       94.874    -525.359     288.026
  O       97.254    -526.051     287.196
  H       94.416    -525.279     288.880
  H       94.930    -518.115     288.231
  H       90.493    -521.517     290.637
  H       94.016    -522.702     292.598
  H       95.288    -521.845     290.655
  H       93.599    -520.011     287.893
  H       95.520    -519.500     289.920
  H       96.708    -521.576     289.441
  H       96.306    -520.902     286.476
  H       96.204    -523.424     286.299
  H       97.809    -522.787     286.727
  P       98.692    -519.728     289.737
  C      101.191    -519.239     290.329
  O      100.250    -519.692     289.377
  O       98.541    -520.980     290.721
  O       98.120    -518.452     290.262
  H       98.692    -521.831     290.276
  H      102.179    -519.617     290.056
  H      100.946    -519.593     291.335
  H      101.216    -518.148     290.326
  H       96.349    -527.345     291.017
  H       96.699    -527.825     289.373
  H       95.125    -527.185     289.780

 3  4  5  6  7  8  9  10  11  12  13  24  28  29  30  31  32 0
 6-311+G(2d,p)
 ****
 33  34 0
 6-311+G(2d,p)
 ****
 1  2  14  15  16  17  18  19  20  21  22  23  25  26  27 0
 3-21G
 ****
 35  36  37  38  39  40  41  42  43  44  45 0
 3-21G
 ****


