%nproc=1
%NoSave
%Mem=1900MB
#P OB98/GEN NMR

erre ene a

0 1
  C     -898.840    -889.365    -197.497
  O     -898.160    -890.462    -198.076
  H     -898.900    -889.521    -196.429
  H     -899.850    -889.286    -197.916
  H     -898.290    -888.435    -197.696
  P     -897.930    -890.412    -199.678
  C     -899.020    -892.756    -200.031
  O     -897.870    -891.940    -200.159
  C     -899.140    -893.707    -201.230
  O     -899.380    -892.909    -202.429
  C     -897.850    -894.520    -201.488
  O     -898.220    -895.776    -202.092
  C     -897.150    -893.669    -202.542
  O     -896.150    -894.407    -203.192
  C     -898.360    -893.243    -203.381
  N     -896.340    -891.877    -207.866
  C     -896.560    -893.101    -207.304
  N     -897.100    -893.383    -206.107
  C     -897.470    -892.242    -205.477
  C     -897.310    -890.938    -205.911
  C     -896.700    -890.783    -207.183
  N     -896.450    -889.559    -207.745
  N     -897.800    -890.046    -204.978
  C     -898.240    -890.796    -203.988
  N     -898.070    -892.125    -204.251
  O     -896.430    -889.893    -199.802
  O     -898.880    -889.545    -200.435
  H     -895.740    -893.897    -203.916
  H     -896.410    -888.923    -199.886
  H     -896.250    -893.957    -207.910
  H     -898.670    -890.431    -203.068
  H     -898.730    -894.067    -204.006
  H     -896.660    -892.805    -202.078
  H     -897.250    -894.702    -200.584
  H     -900.000    -894.359    -201.091
  H     -899.900    -892.111    -199.972
  H     -898.940    -893.335    -199.107
  H     -895.990    -889.511    -208.636
  H     -896.690    -888.706    -207.226
  P     -897.730    -897.141    -201.383
  C     -897.500    -898.893    -203.321
  O     -898.260    -898.421    -202.211
  O     -898.660    -897.190    -200.072
  O     -896.280    -897.203    -201.007
  H     -898.090    -897.425    -199.281
  H     -897.989    -899.741    -203.753
  H     -896.523    -899.175    -202.990
  H     -897.418    -898.117    -204.053

 6  7  8  9  10  11  12  13  14  15  25  28  32  33  34  35 0
 6-311+G(2d,p)
 ****
 36  37  40 0
 6-311+G(2d,p)
 ****
 1  2  3  4  5  16  17  18  19  20  21  22  23  24 0
 3-21G
 ****
 26  27  29  30  31  38  39 41  42  43  44  45  46  47  48 0
 3-21G
 ****


