%nproc=1
%NoSave
%Mem=1900MB
#P OB98/GEN NMR

erre ene a

0 1
  C     -475.863    -670.175     -76.952
  O     -476.037    -669.973     -78.338
  H     -476.134    -669.258     -76.424
  H     -474.812    -670.399     -76.744
  H     -476.494    -670.992     -76.591
  P     -475.993    -671.271     -79.276
  C     -478.335    -671.393     -80.378
  O     -476.981    -670.995     -80.514
  C     -479.103    -670.398     -79.512
  O     -479.101    -669.105     -80.167
  C     -480.564    -670.788     -79.256
  O     -480.914    -670.439     -77.916
  C     -481.336    -669.909     -80.229
  O     -482.680    -669.674     -79.808
  C     -480.462    -668.660     -80.263
  N     -483.997    -666.565     -83.183
  C     -484.109    -667.193     -81.959
  N     -485.348    -667.276     -81.432
  N     -483.090    -667.687     -81.306
  C     -481.906    -667.498     -81.935
  C     -481.661    -666.900     -83.152
  C     -482.802    -666.377     -83.879
  O     -482.772    -665.834     -84.976
  N     -480.329    -666.931     -83.466
  C     -479.761    -667.546     -82.438
  N     -480.678    -667.902     -81.482
  O     -476.772    -672.372     -78.414
  O     -474.629    -671.743     -79.653
  H     -482.637    -669.299     -78.903
  H     -476.164    -673.096     -78.174
  H     -484.813    -666.214     -83.655
  H     -478.712    -667.761     -82.340
  H     -480.669    -667.989     -79.425
  H     -481.373    -670.394     -81.215
  H     -486.165    -666.878     -81.852
  H     -480.759    -671.850     -79.422
  H     -485.448    -667.697     -80.514
  H     -478.563    -670.271     -78.563
  H     -478.369    -672.382     -79.908
  H     -478.799    -671.453     -81.372
  P     -481.071    -671.649     -76.873
  C     -481.109    -669.920     -74.943
  O     -481.720    -671.066     -75.521
  O     -479.557    -671.970     -76.457
  O     -481.748    -672.856     -77.436
  H     -479.277    -672.819     -76.857
  H     -481.639    -669.642     -74.056
  H     -481.136    -669.111     -75.642
  H     -480.092    -670.144     -74.696

 6  7  8  9  10  11  12  13  14  15  26  29  33  34 0
 6-311+G(2d,p)
 ****
 36  38  39  40  41 0
 6-311+G(2d,p)
 ****
 1  2  3  4  5  16  17  18  19  20  21  22  23  24  25 0
 3-21G
 ****
 27  28  30  31  32  35  37  42  43  44  45  46  47 0
 3-21G
 ****
 48  49 0
 3-21G
 ****


