%nproc=1
%NoSave
%Mem=1900MB
#P OB98/GEN NMR

erre ene a

0 1
  C       42.323     -16.674     260.439
  O       41.925     -17.181     259.176
  P       40.862     -18.383     259.132
  C       42.750     -20.174     259.496
  O       41.526     -19.607     259.926
  C       42.630     -21.699     259.409
  O       42.433     -22.233     260.748
  C       41.465     -22.196     258.542
  O       41.902     -23.400     257.896
  C       40.386     -22.502     259.569
  O       39.417     -23.414     259.085
  C       41.239     -23.038     260.725
  N       40.559     -22.986     262.021
  C       39.888     -24.127     262.446
  O       39.813     -25.165     261.792
  N       39.262     -24.029     263.667
  C       39.193     -22.909     264.445
  O       38.602     -22.874     265.521
  C       39.880     -21.723     263.921
  C       40.529     -21.818     262.758
  O       40.951     -18.817     257.597
  O       39.500     -17.995     259.600
  H       41.848     -18.744     257.231
  H       38.633     -23.358     259.663
  H       38.800     -24.855     264.013
  H       39.831     -20.811     264.503
  H       41.043     -20.954     262.349
  H       41.551     -24.068     260.513
  H       39.875     -21.574     259.843
  H       41.159     -21.462     257.791
  H       43.584     -22.097     259.038
  H       43.539     -19.917     260.210
  H       43.024     -19.748     258.525
  P       41.853     -23.459     256.287
  C       39.627     -24.835     256.378
  O       40.332     -23.726     255.867
  O       42.547     -24.886     256.035
  O       42.560     -22.341     255.593
  H       42.178     -25.589     256.596
  H       38.556     -24.659     256.254
  H       39.833     -24.981     257.442
  H       39.901     -25.737     255.824
  H       43.030     -15.883     260.299
  H       42.774     -17.457     261.012
  H       41.466     -16.299     260.959

 3  4  5  6  7  8  9  10  11  12  13  24  28  29  30  31  32 0
 6-311+G(2d,p)
 ****
 33  34 0
 6-311+G(2d,p)
 ****
 1  2  14  15  16  17  18  19  20  21  22  23  25  26  27 0
 3-21G
 ****
 35  36  37  38  39  40  41  42  43  44  45 0
 3-21G
 ****


