%nproc=1
%NoSave
%Mem=1900MB
#P OB98/GEN NMR

erre ene a

0 1
  C       14.914     -14.387     402.226
  O       15.045     -14.677     400.850
  H       14.185     -15.075     402.660
  H       14.551     -13.364     402.360
  H       15.868     -14.513     402.746
  P       16.188     -13.935     400.011
  C       14.383     -13.326     398.266
  O       15.676     -13.864     398.492
  C       13.561     -14.247     397.354
  O       13.265     -15.479     398.082
  C       12.210     -13.653     396.906
  O       11.916     -14.207     395.616
  C       11.284     -14.211     397.973
  O        9.925     -14.042     397.654
  C       11.830     -15.644     398.054
  N       11.377     -16.420     399.201
  C       10.675     -17.593     398.950
  O       10.410     -18.025     397.828
  N       10.263     -18.289     400.058
  C       10.491     -17.937     401.357
  O       10.124     -18.619     402.308
  C       11.235     -16.684     401.558
  C       11.643     -15.997     400.489
  O       17.573     -14.464     400.185
  O       16.079     -12.408     400.489
  H       16.788     -12.215     401.130
  H        9.387     -14.197     398.458
  H        9.753     -19.145     399.897
  H       11.424     -16.374     402.577
  H       12.202     -15.073     400.608
  H       11.588     -16.185     397.134
  H       11.439     -13.679     398.915
  H       12.221     -12.561     396.840
  H       14.176     -14.529     396.491
  H       14.496     -12.345     397.794
  H       13.872     -13.201     399.227
  P       11.977     -13.358     394.252
  C        9.510     -13.479     393.470
  O       10.845     -13.924     393.261
  O       13.339     -13.297     393.638
  O       11.454     -11.895     394.639
  H       11.833     -11.240     394.027
  H        8.866     -13.931     392.745
  H        9.469     -12.415     393.369
  H        9.191     -13.757     394.453

 6  7  8  9  10  11  12  13  14  15  16  27  31  32  33  34  35 0
 6-311+G(2d,p)
 ****
 36  37 0
 6-311+G(2d,p)
 ****
 1  2  3  4  5  17  18  19  20  21  22  23  24  25 0
 3-21G
 ****
 26  28  29  30  38  39  40  41  42  43  44  45 0
 3-21G
 ****


