%nproc=1
%NoSave
%Mem=1900MB
#P OB98/GEN NMR

erre ene a

0 1
  C     -782.572     -55.130     -37.669
  O     -782.903     -56.510     -37.787
  P     -784.448     -56.885     -38.072
  C     -786.713     -56.125     -37.058
  O     -785.296     -56.168     -36.928
  C     -787.377     -56.501     -35.736
  O     -787.032     -55.563     -34.694
  C     -788.913     -56.499     -35.784
  O     -789.429     -57.694     -36.350
  C     -789.241     -56.421     -34.297
  O     -789.131     -57.729     -33.700
  C     -788.151     -55.484     -33.781
  N     -790.951     -52.261     -31.038
  C     -790.560     -53.570     -30.758
  N     -791.040     -54.095     -29.612
  N     -789.768     -54.285     -31.518
  C     -789.390     -53.617     -32.648
  C     -789.681     -52.320     -33.023
  C     -790.566     -51.557     -32.171
  O     -790.979     -50.431     -32.398
  N     -789.095     -52.010     -34.226
  C     -788.414     -53.093     -34.559
  N     -788.595     -54.104     -33.653
  O     -784.522     -58.437     -37.666
  O     -784.904     -56.640     -39.473
  H     -788.191     -57.985     -33.776
  H     -785.327     -58.831     -38.048
  H     -791.548     -51.770     -30.418
  H     -787.814     -53.192     -35.446
  H     -787.768     -55.806     -32.793
  H     -790.264     -56.074     -34.119
  H     -791.695     -53.633     -29.006
  H     -789.280     -55.609     -36.298
  H     -790.825     -55.074     -29.400
  H     -787.012     -57.494     -35.435
  H     -787.017     -56.822     -37.832
  H     -787.018     -55.111     -37.356
  P     -790.867     -57.583     -37.045
  C     -793.219     -56.893     -36.188
  O     -791.892     -57.229     -35.866
  O     -791.208     -59.113     -37.419
  O     -790.910     -56.696     -38.251
  H     -791.815     -59.157     -38.162
  H     -793.833     -56.942     -35.287
  H     -793.630     -57.595     -36.921
  H     -793.273     -55.881     -36.604
  H     -781.523     -55.029     -37.482
  H     -783.122     -54.699     -36.858
  H     -782.823     -54.624     -38.578

 3  4  5  6  7  8  9  10  11  12  23  26  30  31 0
 6-311+G(2d,p)
 ****
 33  35  36  37  38 0
 6-311+G(2d,p)
 ****
 1  2  13  14  15  16  17  18  19  20  21  22  24  25 0
 3-21G
 ****
 27  28  29  32  34  39  40  41  42  43  44  45  46  47  48  49 0
 3-21G
 ****


