%nproc=1
%NoSave
%Mem=1900MB
#P OB98/GEN NMR

erre ene a

0 1
  C       63.920     146.336     165.831
  O       63.492     146.286     167.177
  H       63.133     146.800     165.230
  H       64.096     145.323     165.458
  H       64.832     146.933     165.741
  P       64.579     145.807     168.261
  C       64.337     143.313     167.483
  O       65.177     144.434     167.689
  C       65.139     142.015     167.590
  O       65.914     141.847     166.376
  C       66.109     141.982     168.772
  O       66.139     140.656     169.300
  C       67.449     142.322     168.142
  O       68.541     141.833     168.920
  C       67.299     141.697     166.747
  N       68.185     142.319     165.762
  C       69.150     141.496     165.176
  O       69.242     140.314     165.509
  N       70.016     142.037     164.261
  C       69.971     143.308     164.006
  N       70.873     143.789     163.105
  C       69.004     144.226     164.641
  C       68.144     143.669     165.491
  O       63.643     145.341     169.473
  O       65.587     146.847     168.619
  H       68.314     140.924     169.220
  H       62.854     144.849     169.190
  H       69.016     145.281     164.406
  H       67.394     144.267     165.996
  H       67.523     140.623     166.779
  H       67.557     143.410     168.059
  H       65.850     142.685     169.564
  H       64.436     141.174     167.632
  H       71.531     143.130     162.707
  H       63.862     143.368     166.498
  H       70.961     144.767     162.871
  H       63.548     143.334     168.243
  P       65.219     140.294     170.562
  C       66.497     140.268     172.802
  O       65.787     141.055     171.855
  O       64.930     138.842     170.757
  O       63.864     141.105     170.258
  H       63.111     140.545     170.539
  H       66.821     140.889     173.611
  H       67.349     139.824     172.330
  H       65.856     139.498     173.178

 6  7  8  9  10  11  12  13  14  15  16  26  30  31  32  33  35 0
 6-311+G(2d,p)
 ****
 37  38 0
 6-311+G(2d,p)
 ****
 1  2  3  4  5  17  18  19  20  21  22  23  24  25 0
 3-21G
 ****
 27  28  29  34  36  39  40  41  42  43  44  45  46 0
 3-21G
 ****


