%nproc=1
%NoSave
%Mem=1900MB
#P OB98/GEN NMR

erre ene a

0 1
  C     -296.783     127.564       2.904
  O     -297.247     126.229       2.961
  H     -296.995     127.968       1.911
  H     -295.704     127.592       3.076
  H     -297.295     128.176       3.652
  P     -297.064     125.470       4.361
  C     -294.925     124.372       3.350
  O     -295.512     125.066       4.443
  C     -294.378     123.018       3.818
  O     -293.346     123.255       4.822
  C     -295.439     122.116       4.470
  O     -295.081     120.744       4.231
  C     -295.251     122.433       5.943
  O     -295.859     121.445       6.742
  C     -293.729     122.513       5.997
  N     -291.340     121.764      10.439
  C     -291.615     120.934       9.412
  N     -292.249     121.213       8.254
  C     -292.590     122.513       8.206
  C     -292.382     123.478       9.175
  C     -291.728     123.060      10.344
  N     -291.467     123.894      11.406
  N     -292.902     124.693       8.767
  C     -293.407     124.464       7.571
  N     -293.240     123.162       7.192
  O     -297.808     124.073       4.119
  O     -297.589     126.185       5.559
  H     -295.611     121.552       7.683
  H     -298.736     124.136       4.415
  H     -291.280     119.906       9.533
  H     -293.909     125.191       6.947
  H     -293.257     121.525       5.941
  H     -295.708     123.392       6.202
  H     -296.452     122.300       4.102
  H     -293.890     122.517       2.974
  H     -294.115     124.983       2.945
  H     -295.681     124.210       2.574
  H     -291.017     123.509      12.220
  H     -291.780     124.855      11.365
  P     -295.927     119.891       3.164
  C     -297.481     118.736       4.913
  O     -297.377     119.541       3.750
  O     -295.188     118.467       3.215
  O     -295.918     120.423       1.768
  H     -295.039     118.142       2.309
  H     -298.513     118.603       5.163
  H     -296.976     119.216       5.725
  H     -297.033     117.782       4.728

 6  7  8  9  10  11  12  13  14  15  25  28  32  33  34  35 0
 6-311+G(2d,p)
 ****
 36  37  40 0
 6-311+G(2d,p)
 ****
 1  2  3  4  5  16  17  18  19  20  21  22  23  24 0
 3-21G
 ****
 26  27  29  30  31  38  39 41  42  43  44  45  46  47  48 0
 3-21G
 ****


