%nproc=1
%NoSave
%Mem=1900MB
#P OB98/GEN NMR

erre ene a

0 1
  C       25.972    -638.306    -125.603
  O       24.941    -637.348    -125.333
  P       25.177    -636.023    -124.459
  C       25.036    -636.976    -122.064
  O       25.873    -636.416    -123.069
  C       25.834    -637.762    -121.019
  O       26.815    -636.885    -120.378
  C       24.980    -638.388    -119.903
  O       25.558    -639.668    -119.615
  C       25.190    -637.409    -118.756
  O       24.862    -637.936    -117.483
  C       26.681    -637.092    -118.956
  N       27.174    -635.936    -118.216
  C       27.725    -636.161    -116.948
  O       27.736    -637.281    -116.440
  N       28.235    -635.087    -116.256
  C       28.194    -633.903    -116.772
  N       28.728    -632.883    -116.038
  C       27.611    -633.612    -118.098
  C       27.126    -634.665    -118.752
  O       23.947    -635.189    -124.284
  O       26.311    -635.193    -125.233
  H       26.126    -634.237    -125.144
  H       25.396    -638.741    -117.341
  H       27.609    -632.610    -118.497
  H       26.704    -634.543    -119.743
  H       27.275    -637.973    -118.700
  H       24.554    -636.534    -118.926
  H       23.934    -638.531    -120.182
  H       26.409    -638.537    -121.540
  H       29.131    -633.120    -115.139
  H       24.326    -637.658    -122.551
  H       28.765    -631.925    -116.347
  H       24.463    -636.170    -121.589
  P       24.945    -640.984    -120.284
  C       23.933    -642.195    -118.207
  O       23.697    -641.449    -119.377
  O       26.044    -642.094    -119.908
  O       24.741    -640.939    -121.762
  H       26.012    -642.814    -120.565
  H       23.305    -641.791    -117.408
  H       24.982    -642.153    -117.885
  H       23.648    -643.235    -118.380
  H       25.575    -639.098    -126.203
  H       26.338    -638.706    -124.680
  H       26.773    -637.829    -126.128

 3  4  5  6  7  8  9  10  11  12  13  24  27  28  29  30  32 0
 6-311+G(2d,p)
 ****
 34  35 0
 6-311+G(2d,p)
 ****
 1  2  14  15  16  17  18  19  20  21  22  23  25  26 0
 3-21G
 ****
 31  33  36  37  38  39  40  41  42  43  44  45  46 0
 3-21G
 ****


