%nproc=1
%NoSave
%Mem=1900MB
#P OB98/GEN NMR

erre ene a

0 1
  C      574.190     394.826     -55.165
  O      575.123     394.461     -56.166
  H      573.372     394.099     -55.164
  H      573.775     395.815     -55.389
  H      574.653     394.834     -54.177
  P      576.544     395.198     -56.204
  C      576.546     395.867     -58.699
  O      576.452     396.317     -57.348
  C      576.417     397.043     -59.668
  O      576.608     396.544     -61.030
  C      575.041     397.743     -59.636
  O      575.256     399.129     -59.945
  C      574.328     397.043     -60.777
  O      573.151     397.717     -61.156
  C      575.463     396.971     -61.802
  N      575.193     396.062     -62.907
  C      574.407     396.543     -63.946
  O      573.941     397.683     -63.995
  N      574.141     395.646     -64.953
  C      574.577     394.357     -65.008
  O      574.329     393.604     -65.948
  C      575.386     393.900     -63.869
  C      575.657     394.756     -62.887
  O      577.737     394.303     -56.289
  O      576.562     396.068     -54.859
  H      577.055     395.589     -54.164
  H      572.531     397.788     -60.392
  H      573.567     395.983     -65.721
  H      575.729     392.873     -63.877
  H      576.248     394.454     -62.023
  H      575.692     397.969     -62.190
  H      574.019     396.037     -60.469
  H      574.540     397.657     -58.664
  H      577.228     397.754     -59.476
  H      575.729     395.157     -58.872
  H      577.507     395.368     -58.848
  P      575.595     400.234     -58.822
  C      573.328     401.475     -58.833
  O      574.236     400.680     -58.086
  O      576.391     401.395     -59.351
  O      576.412     399.462     -57.689
  H      577.093     400.055     -57.321
  H      572.472     401.700     -58.231
  H      573.019     400.939     -59.706
  H      573.808     402.385     -59.125

 6  7  8  9  10  11  12  13  14  15  16  27  31  32  33  34  35 0
 6-311+G(2d,p)
 ****
 36  37 0
 6-311+G(2d,p)
 ****
 1  2  3  4  5  17  18  19  20  21  22  23  24  25 0
 3-21G
 ****
 26  28  29  30  38  39  40  41  42  43  44  45 0
 3-21G
 ****


