%nproc=1
%NoSave
%Mem=1900MB
#P OB98/GEN NMR

erre ene a

0 1
  C       74.872     440.816     -42.250
  O       76.294     440.761     -42.079
  P       76.962     441.846     -41.103
  C       77.342     440.396     -38.950
  O       77.899     441.007     -40.106
  C       78.050     439.075     -38.663
  O       77.810     438.125     -39.729
  C       79.568     439.191     -38.555
  O       79.957     439.789     -37.329
  C       79.978     437.732     -38.722
  O       79.823     437.025     -37.485
  C       78.945     437.226     -39.757
  N       79.498     437.097     -41.099
  C       80.440     436.089     -41.279
  O       80.817     435.349     -40.361
  N       80.951     435.961     -42.541
  C       80.644     436.748     -43.609
  O       81.127     436.580     -44.723
  C       79.677     437.835     -43.350
  C       79.158     437.958     -42.129
  O       75.708     442.273     -40.208
  O       77.626     442.961     -41.837
  H       75.099     441.533     -40.033
  H       80.205     436.134     -37.627
  H       81.627     435.229     -42.692
  H       79.429     438.495     -44.174
  H       78.449     438.750     -41.916
  H       78.562     436.242     -39.451
  H       81.023     437.626     -39.037
  H       79.954     439.784     -39.397
  H       77.638     438.659     -37.732
  H       76.275     440.208     -39.105
  H       77.435     441.086     -38.107
  P       81.236     440.758     -37.367
  C       80.075     443.042     -37.899
  O       80.710     442.215     -36.952
  O       81.490     440.872     -38.946
  O       82.402     440.245     -36.594
  H       80.671     441.007     -39.454
  H       79.494     443.804     -37.367
  H       79.394     442.468     -38.536
  H       80.826     443.539     -38.517
  H       74.563     440.042     -42.921
  H       74.598     441.768     -42.654
  H       74.393     440.679     -41.303

 3  4  5  6  7  8  9  10  11  12  13  24  28  29  30  31  32 0
 6-311+G(2d,p)
 ****
 33  34 0
 6-311+G(2d,p)
 ****
 1  2  14  15  16  17  18  19  20  21  22  23  25  26  27 0
 3-21G
 ****
 35  36  37  38  39  40  41  42  43  44  45 0
 3-21G
 ****


