%nproc=1
%NoSave
%Mem=1900MB
#P OB98/GEN NMR

erre ene a

0 1
  C      -48.609     292.338      11.429
  O      -49.282     291.459      12.309
  H      -48.735     291.973      10.406
  H      -47.542     292.351      11.665
  H      -49.019     293.351      11.492
  P      -49.499     291.899      13.834
  C      -52.069     291.632      13.876
  O      -50.819     291.131      14.332
  C      -53.215     290.817      14.481
  O      -53.223     289.497      13.852
  C      -53.082     290.605      16.005
  O      -54.391     290.583      16.582
  C      -52.467     289.220      16.065
  O      -52.651     288.613      17.320
  C      -53.190     288.530      14.912
  N      -52.516     287.294      14.521
  C      -53.311     286.166      14.346
  O      -54.533     286.165      14.514
  N      -52.657     285.006      14.040
  C      -51.300     284.846      14.005
  O      -50.765     283.764      13.804
  C      -50.504     286.058      14.251
  C      -51.138     287.210      14.486
  O      -49.501     293.371      14.098
  O      -48.345     291.136      14.635
  H      -52.097     289.057      17.987
  H      -48.177     291.575      15.493
  H      -53.222     284.186      13.898
  H      -49.425     285.961      14.241
  H      -50.580     288.120      14.690
  H      -54.229     288.298      15.185
  H      -51.388     289.276      15.870
  H      -52.471     291.367      16.492
  H      -54.167     291.294      14.235
  H      -52.093     291.549      12.783
  H      -52.167     292.684      14.156
  P      -54.866     291.684      17.650
  C      -57.366     291.370      17.145
  O      -56.362     291.375      18.156
  O      -54.656     293.100      17.206
  O      -53.970     291.386      18.948
  H      -53.617     292.229      19.295
  H      -58.316     291.156      17.587
  H      -57.135     290.621      16.416
  H      -57.401     292.329      16.672

 6  7  8  9  10  11  12  13  14  15  16  26  31  32  33  34  35 0
 6-311+G(2d,p)
 ****
 36  37 0
 6-311+G(2d,p)
 ****
 1  2  3  4  5  17  18  19  20  21  22  23  24  25 0
 3-21G
 ****
 27  28  29  30  38  39  40  41  42  43  44  45 0
 3-21G
 ****


