%nproc=1
%NoSave
%Mem=1900MB
#P OB98/GEN NMR

erre ene a

0 1
  C     -209.790    -184.015      55.089
  O     -209.256    -182.713      54.876
  P     -207.749    -182.524      54.364
  C     -207.654    -181.218      52.149
  O     -207.707    -181.129      53.570
  C     -208.282    -179.982      51.506
  O     -209.724    -180.071      51.633
  C     -207.842    -178.671      52.153
  O     -207.737    -177.667      51.140
  C     -208.996    -178.300      53.069
  O     -209.050    -176.879      53.291
  C     -210.190    -178.881      52.305
  N     -214.035    -177.138      55.236
  C     -213.133    -176.495      54.461
  N     -212.127    -177.020      53.731
  C     -212.128    -178.361      53.811
  C     -212.988    -179.157      54.555
  C     -213.979    -178.492      55.301
  N     -214.905    -179.148      56.081
  N     -212.666    -180.494      54.412
  C     -211.646    -180.504      53.579
  N     -211.293    -179.243      53.181
  O     -207.184    -183.684      53.611
  O     -206.911    -182.211      55.689
  H     -209.710    -176.722      53.996
  H     -206.034    -182.642      55.648
  H     -213.237    -175.410      54.425
  H     -211.123    -181.391      53.244
  H     -210.565    -178.183      51.544
  H     -208.867    -178.789      54.042
  H     -206.893    -178.760      52.693
  H     -208.045    -179.985      50.430
  H     -208.210    -182.109      51.840
  H     -215.652    -178.597      56.483
  H     -214.972    -180.155      55.994
  H     -206.610    -181.338      51.827
  P     -206.430    -176.722      51.216
  C     -206.108    -176.730      48.632
  O     -206.382    -175.980      49.795
  O     -205.211    -177.484      51.633
  O     -206.916    -175.607      52.258
  H     -207.899    -175.522      52.268
  H     -206.078    -176.045      47.775
  H     -206.900    -177.463      48.461
  H     -205.141    -177.237      48.719
  H     -210.802    -183.935      55.427
  H     -209.206    -184.523      55.828
  H     -209.763    -184.566      54.172

 3  4  5  6  7  8  9  10  11  12  22  25  29  30  31  32 0
 6-311+G(2d,p)
 ****
 33  36  37 0
 6-311+G(2d,p)
 ****
 1  2  13  14  15  16  17  18  19  20  21  23  24  26 0
 3-21G
 ****
 27  28  34  35  38  39  40  41  42  43  44  45  46  47  48 0
 3-21G
 ****


