%nproc=1
%NoSave
%Mem=1900MB
#P OB98/GEN NMR

erre ene a

0 1
  C     -187.588    -586.022     967.956
  O     -189.017    -586.097     968.138
  P     -189.726    -587.229     969.016
  C     -190.820    -585.495     970.583
  O     -190.005    -586.663     970.487
  C     -190.760    -584.879     971.990
  O     -189.435    -584.408     972.281
  C     -191.674    -583.679     972.200
  O     -193.023    -584.064     972.349
  C     -191.043    -583.040     973.429
  O     -191.504    -583.692     974.628
  C     -189.540    -583.311     973.206
  N     -188.831    -582.133     972.720
  C     -187.792    -581.659     973.533
  O     -187.555    -582.182     974.621
  N     -187.066    -580.575     973.096
  C     -187.393    -579.981     971.980
  N     -186.634    -578.920     971.608
  C     -188.534    -580.395     971.155
  C     -189.198    -581.471     971.573
  O     -189.014    -588.548     968.997
  O     -191.194    -587.382     968.394
  H     -191.004    -583.299     975.373
  H     -191.496    -588.303     968.505
  H     -188.789    -579.859     970.250
  H     -190.042    -581.856     971.015
  H     -189.074    -583.650     974.135
  H     -191.284    -581.978     973.534
  H     -191.568    -582.982     971.344
  H     -191.012    -585.671     972.711
  H     -185.855    -578.659     972.195
  H     -191.853    -585.784     970.361
  H     -186.800    -578.391     970.764
  H     -190.486    -584.763     969.832
  P     -194.075    -583.755     971.176
  C     -194.753    -586.202     970.756
  O     -194.141    -585.038     970.224
  O     -193.889    -582.446     970.473
  O     -195.494    -583.796     971.925
  H     -196.107    -583.175     971.490
  H     -195.091    -586.834     969.940
  H     -195.610    -585.935     971.397
  H     -194.020    -586.750     971.362
  H     -187.351    -585.185     967.333
  H     -187.240    -586.922     967.493
  H     -187.113    -585.904     968.907

 3  4  5  6  7  8  9  10  11  12  13  23  27  28  29  30  32 0
 6-311+G(2d,p)
 ****
 34  35 0
 6-311+G(2d,p)
 ****
 1  2  14  15  16  17  18  19  20  21  22  24  25  26 0
 3-21G
 ****
 31  33  36  37  38  39  40  41  42  43  44  45  46 0
 3-21G
 ****


