%nproc=1
%NoSave
%Mem=1900MB
#P OB98/GEN NMR

erre ene a

0 1
  C      136.070     -39.042    -858.134
  O      136.159     -39.303    -856.748
  H      135.213     -39.577    -858.562
  H      135.929     -37.969    -858.279
  H      136.997     -39.352    -858.630
  P      136.264     -40.839    -856.318
  C      138.824     -41.100    -856.656
  O      137.745     -41.055    -855.730
  C      140.102     -40.584    -856.002
  O      140.043     -39.147    -855.860
  C      140.362     -41.115    -854.601
  O      140.903     -42.429    -854.626
  C      141.382     -40.106    -854.102
  O      142.687     -40.432    -854.613
  C      140.884     -38.791    -854.732
  N      140.443     -34.125    -852.645
  C      141.325     -34.633    -853.530
  N      141.392     -35.879    -854.028
  C      140.392     -36.648    -853.545
  C      139.427     -36.262    -852.632
  C      139.475     -34.939    -852.166
  N      138.576     -34.427    -851.251
  N      138.567     -37.308    -852.370
  C      139.013     -38.314    -853.099
  N      140.125     -37.958    -853.824
  O      136.300     -41.625    -857.714
  O      135.149     -41.344    -855.452
  H      142.874     -41.347    -854.333
  H      135.818     -42.464    -857.627
  H      142.079     -33.941    -853.900
  H      138.559     -39.294    -853.150
  H      141.722     -38.203    -855.133
  H      141.458     -40.073    -853.017
  H      139.457     -41.063    -853.984
  H      140.935     -40.820    -856.679
  H      138.583     -40.465    -857.523
  H      138.538     -33.442    -851.108
  H      137.842     -35.048    -850.909
  H      138.959     -42.129    -857.002
  P      140.474     -43.435    -853.445
  C      138.844     -45.110    -854.590
  O      140.175     -44.846    -854.151
  O      139.013     -42.914    -853.048
  O      141.395     -43.460    -852.278
  H      138.808     -43.146    -852.118
  H      138.802     -46.081    -855.037
  H      138.553     -44.374    -855.310
  H      138.178     -45.073    -853.753

 6  7  8  9  10  11  12  13  14  15  25  28  32  33  34  35 0
 6-311+G(2d,p)
 ****
 36  39  40 0
 6-311+G(2d,p)
 ****
 1  2  3  4  5  16  17  18  19  20  21  22  23  24 0
 3-21G
 ****
 26  27  29  30  31  37  38  41  42  43  44  45  46  47  48 0
 3-21G
 ****


