%nproc=1
%NoSave
%Mem=1900MB
#P OB98/GEN NMR

erre ene a

0 1
  C     -202.087     -61.901      97.942
  O     -202.150     -61.481      99.295
  P     -201.977     -62.602     100.432
  C     -200.331     -61.120     101.797
  O     -201.564     -61.827     101.774
  C     -200.329     -60.102     102.932
  O     -201.240     -59.019     102.651
  C     -200.774     -60.662     104.275
  O     -199.735     -61.355     104.945
  C     -201.126     -59.385     105.022
  O     -199.929     -58.764     105.527
  C     -201.748     -58.526     103.914
  N     -205.935     -57.272     106.466
  C     -204.625     -56.887     106.674
  N     -204.394     -56.105     107.750
  N     -203.635     -57.235     105.899
  C     -204.015     -58.026     104.863
  C     -205.280     -58.472     104.551
  C     -206.366     -58.090     105.426
  O     -207.536     -58.443     105.325
  N     -205.272     -59.246     103.422
  C     -204.008     -59.272     103.047
  N     -203.200     -58.582     103.914
  O     -200.626     -63.349     100.012
  O     -203.128     -63.544     100.557
  H     -200.217     -58.039     106.117
  H     -200.566     -64.213     100.464
  H     -206.664     -56.984     107.094
  H     -203.633     -59.786     102.171
  H     -201.452     -57.476     103.998
  H     -201.779     -59.562     105.883
  H     -205.105     -55.855     108.423
  H     -201.675     -61.282     104.169
  H     -203.435     -55.861     107.965
  H     -199.316     -59.680     103.009
  H     -200.192     -60.607     100.842
  H     -199.511     -61.834     101.924
  P     -200.157     -62.228     106.227
  C     -198.479     -63.933     105.216
  O     -199.011     -63.337     106.381
  O     -201.422     -63.053     105.701
  O     -200.470     -61.425     107.445
  H     -202.008     -63.292     106.443
  H     -197.550     -64.451     105.480
  H     -198.256     -63.182     104.455
  H     -199.187     -64.665     104.814
  H     -202.217     -61.055      97.300
  H     -202.862     -62.615      97.754
  H     -201.135     -62.350      97.752

 3  4  5  6  7  8  9  10  11  12  23  26  30  31 0
 6-311+G(2d,p)
 ****
 33  35  36  37  38 0
 6-311+G(2d,p)
 ****
 1  2  13  14  15  16  17  18  19  20  21  22  24  25 0
 3-21G
 ****
 27  28  29  32  34  39  40  41  42  43  44  45  46  47  48  49 0
 3-21G
 ****


