%nproc=1
%NoSave
%Mem=1900MB
#P OB98/GEN NMR

erre ene a

0 1
  C     -900.031     865.598     135.031
  O     -900.403     866.099     133.768
  H     -900.039     866.421     135.747
  H     -899.015     865.183     134.986
  H     -900.729     864.826     135.359
  P     -900.461     865.031     132.566
  C     -902.986     865.562     132.092
  O     -901.655     865.511     131.601
  C     -903.669     866.887     131.719
  O     -902.977     867.975     132.392
  C     -903.603     867.202     130.194
  O     -904.752     867.983     129.871
  C     -902.357     868.049     130.125
  O     -902.280     868.710     128.876
  C     -902.527     868.902     131.361
  N     -900.525     871.809     135.056
  C     -901.719     871.207     134.940
  N     -902.175     870.439     133.936
  C     -901.246     870.287     132.978
  C     -899.975     870.826     132.955
  C     -899.599     871.625     134.055
  N     -898.393     872.254     134.170
  N     -899.300     870.466     131.790
  C     -900.166     869.707     131.140
  N     -901.339     869.579     131.808
  O     -901.071     863.717     133.262
  O     -899.169     864.756     131.880
  H     -903.064     869.259     128.707
  H     -900.350     863.129     133.535
  H     -902.405     871.367     135.775
  H     -899.962     869.227     130.164
  H     -903.324     869.649     131.231
  H     -901.457     867.419     130.188
  H     -903.580     866.282     129.569
  H     -904.704     866.856     132.085
  H     -902.957     865.474     133.201
  H     -903.560     864.725     131.686
  H     -898.204     872.833     134.982
  H     -897.711     872.147     133.431
  P     -905.531     867.690     128.477
  C     -907.813     866.574     129.140
  O     -907.104     867.753     128.742
  O     -905.309     866.112     128.296
  O     -905.050     868.441     127.298
  H     -905.313     865.896     127.353
  H     -908.849     866.808     129.270
  H     -907.411     866.210     130.062
  H     -907.709     865.823     128.385

 6  7  8  9  10  11  12  13  14  15  25  28  32  33  34  35 0
 6-311+G(2d,p)
 ****
 36  37  40 0
 6-311+G(2d,p)
 ****
 1  2  3  4  5  16  17  18  19  20  21  22  23  24 0
 3-21G
 ****
 26  27  29  30  31  38  39 41  42  43  44  45  46  47  48 0
 3-21G
 ****


