%nproc=1
%NoSave
%Mem=1900MB
#P OB98/GEN NMR

erre ene a

0 1
  C       48.173     210.412     372.382
  O       47.408     210.349     373.588
  P       47.943     211.103     374.898
  C       47.428     209.153     376.523
  O       47.191     210.520     376.189
  C       46.101     208.386     376.558
  O       45.600     208.122     375.226
  C       46.235     207.001     377.198
  O       46.475     206.966     378.595
  C       44.990     206.294     376.691
  O       43.840     206.609     377.477
  C       44.852     206.890     375.269
  N       45.293     205.959     374.220
  C       44.402     204.946     373.885
  O       43.320     204.787     374.450
  N       44.813     204.084     372.899
  C       46.018     204.130     372.253
  O       46.347     203.323     371.388
  C       46.928     205.212     372.667
  C       46.531     206.062     373.616
  O       47.998     212.592     374.813
  O       49.427     210.502     375.068
  H       43.059     206.487     376.903
  H       50.018     211.234     375.331
  H       44.178     203.353     372.631
  H       47.895     205.268     372.180
  H       47.189     206.867     373.932
  H       43.804     207.147     375.059
  H       45.109     205.203     376.715
  H       47.095     206.501     376.737
  H       45.355     208.996     377.072
  H       47.929     209.091     377.492
  H       48.118     208.719     375.786
  P       47.092     205.696     379.348
  C       45.683     205.723     381.527
  O       46.948     205.924     380.931
  O       48.400     205.172     378.841
  O       45.958     204.584     379.072
  H       46.398     203.708     378.995
  H       45.762     205.940     382.600
  H       45.361     204.687     381.408
  H       44.938     206.409     381.099
  H       47.674     209.859     371.614
  H       49.142     209.992     372.552
  H       48.275     211.433     372.077

 3  4  5  6  7  8  9  10  11  12  13  23  28  29  30  31  32 0
 6-311+G(2d,p)
 ****
 33  34 0
 6-311+G(2d,p)
 ****
 1  2  14  15  16  17  18  19  20  21  22  24  25  26  27 0
 3-21G
 ****
 35  36  37  38  39  40  41  42  43  44  45 0
 3-21G
 ****


