%nproc=1
%NoSave
%Mem=1900MB
#P OB98/GEN NMR

erre ene a

0 1
  C       42.421    -143.835     166.017
  O       41.299    -143.747     165.128
  P       40.974    -144.852     164.009
  C       40.469    -147.102     165.166
  O       39.925    -145.916     164.603
  C       39.377    -148.014     165.739
  O       38.706    -147.356     166.855
  C       38.291    -148.419     164.723
  O       37.958    -149.784     165.001
  C       37.149    -147.480     165.093
  O       35.887    -147.897     164.606
  C       37.286    -147.493     166.621
  N       36.543    -146.453     167.328
  C       35.648    -146.859     168.324
  O       35.447    -148.049     168.565
  N       34.971    -145.892     169.030
  C       35.160    -144.638     168.761
  N       34.467    -143.733     169.503
  C       36.074    -144.168     167.707
  C       36.728    -145.119     167.038
  O       42.192    -145.486     163.419
  O       40.138    -144.083     162.880
  H       40.374    -144.443     162.001
  H       35.250    -147.179     164.773
  H       36.210    -143.114     167.520
  H       37.444    -144.854     166.267
  H       36.992    -148.477     167.002
  H       37.361    -146.490     164.672
  H       38.613    -148.337     163.681
  H       39.865    -148.909     166.150
  H       33.853    -144.093     170.227
  H       41.152    -146.822     165.976
  H       34.541    -142.735     169.385
  H       41.048    -147.632     164.399
  P       38.825    -150.963     164.339
  C       40.729    -151.431     166.057
  O       39.473    -151.814     165.533
  O       40.096    -150.161     163.779
  O       38.169    -151.723     163.231
  H       40.488    -150.654     163.037
  H       40.686    -151.477     167.149
  H       41.010    -150.418     165.761
  H       41.491    -152.131     165.704
  H       42.427    -142.986     166.669
  H       43.327    -143.854     165.448
  H       42.346    -144.730     166.598

 3  4  5  6  7  8  9  10  11  12  13  24  27  28  29  30  32 0
 6-311+G(2d,p)
 ****
 34  35 0
 6-311+G(2d,p)
 ****
 1  2  14  15  16  17  18  19  20  21  22  23  25  26 0
 3-21G
 ****
 31  33  36  37  38  39  40  41  42  43  44  45  46 0
 3-21G
 ****


