%nproc=1
%NoSave
%Mem=1900MB
#P OB98/GEN NMR

erre ene a

0 1
  C      234.356      -7.320    -745.889
  O      233.800      -6.015    -745.826
  P      234.326      -5.045    -744.661
  C      234.485      -2.682    -745.748
  O      235.161      -3.876    -745.372
  C      235.466      -1.513    -745.784
  O      235.911      -1.194    -744.449
  C      236.735      -1.774    -746.584
  O      236.483      -1.708    -747.980
  C      237.635      -0.669    -746.047
  O      237.308       0.583    -746.667
  C      237.247      -0.638    -744.556
  N      242.090      -1.137    -742.968
  C      241.512      -0.280    -743.837
  N      240.221      -0.223    -744.225
  C      239.498      -1.174    -743.612
  C      239.956      -2.130    -742.719
  C      241.318      -2.087    -742.394
  N      241.907      -2.967    -741.509
  N      238.922      -2.954    -742.316
  C      237.861      -2.497    -742.944
  N      238.155      -1.412    -743.726
  O      235.451      -5.919    -743.941
  O      233.271      -4.585    -743.703
  H      237.709       1.290    -746.127
  H      235.481      -5.733    -742.982
  H      242.170       0.460    -744.282
  H      236.865      -2.910    -742.859
  H      237.213       0.379    -744.149
  H      238.700      -0.857    -746.227
  H      237.150      -2.756    -746.329
  H      234.934      -0.641    -746.185
  H      233.699      -2.462    -745.019
  H      242.914      -2.962    -741.448
  H      241.362      -3.761    -741.195
  H      234.017      -2.834    -746.723
  P      237.472      -2.531    -748.944
  C      236.852      -5.013    -748.701
  O      237.637      -3.944    -748.200
  O      238.872      -1.819    -748.655
  O      237.045      -2.588    -750.373
  H      239.044      -1.725    -747.705
  H      237.100      -5.921    -748.148
  H      237.067      -5.177    -749.762
  H      235.791      -4.793    -748.565
  H      233.919      -7.855    -746.706
  H      234.154      -7.838    -744.975
  H      235.414      -7.250    -746.033

 3  4  5  6  7  8  9  10  11  12  22  25  29  30  31  32 0
 6-311+G(2d,p)
 ****
 33  36  37 0
 6-311+G(2d,p)
 ****
 1  2  13  14  15  16  17  18  19  20  21  23  24  26 0
 3-21G
 ****
 27  28  34  35  38  39  40  41  42  43  44  45  46  47  48 0
 3-21G
 ****


