%nproc=1
%NoSave
%Mem=1900MB
#P OB98/GEN NMR

erre ene a

0 1
  C      133.604      87.839      67.673
  O      134.114      88.992      68.318
  P      135.548      88.966      69.025
  C      134.451      88.141      71.189
  O      135.474      87.905      70.232
  C      134.446      87.066      72.275
  O      134.190      85.773      71.661
  C      135.759      86.945      73.063
  O      135.406      86.578      74.400
  C      136.455      85.777      72.379
  O      137.447      85.172      73.195
  C      135.254      84.888      72.076
  N      135.913      79.929      71.013
  C      135.705      80.579      72.181
  N      135.565      81.906      72.384
  C      135.654      82.578      71.221
  C      135.894      82.054      69.962
  C      136.006      80.654      69.871
  N      136.182      79.973      68.691
  N      135.977      83.072      69.028
  C      135.789      84.180      69.714
  N      135.527      83.926      71.032
  O      136.097      90.301      69.407
  O      136.494      88.234      67.958
  H      137.747      84.352      72.759
  H      137.083      88.890      67.534
  H      135.635      79.953      73.063
  H      135.835      85.183      69.311
  H      134.912      84.339      72.961
  H      136.940      86.126      71.460
  H      136.367      87.857      73.059
  H      133.609      87.272      72.955
  H      133.489      88.130      70.667
  H      136.119      78.967      68.726
  H      135.993      80.456      67.814
  H      134.585      89.131      71.640
  P      136.144      87.272      75.644
  C      137.882      85.413      75.936
  O      137.666      86.774      75.607
  O      135.452      87.126      76.958
  O      136.250      88.810      75.196
  H      136.427      89.361      75.986
  H      137.879      85.303      77.023
  H      138.858      85.105      75.545
  H      137.108      84.777      75.504
  H      132.639      88.056      67.265
  H      133.520      87.042      68.382
  H      134.267      87.548      66.885

 3  4  5  6  7  8  9  10  11  12  22  25  29  30  31  32 0
 6-311+G(2d,p)
 ****
 33  36  37 0
 6-311+G(2d,p)
 ****
 1  2  13  14  15  16  17  18  19  20  21  23  24  26 0
 3-21G
 ****
 27  28  34  35  38  39  40  41  42  43  44  45  46  47  48 0
 3-21G
 ****


