%nproc=1
%NoSave
%Mem=1900MB
#P OB98/GEN NMR

erre ene a

0 1
  C      242.499     180.993    -237.272
  O      241.337     180.302    -236.806
  P      241.299     178.710    -236.995
  C      242.216     178.142    -234.627
  O      241.143     178.028    -235.554
  C      242.332     176.865    -233.793
  O      243.556     176.843    -233.035
  C      241.223     176.717    -232.765
  O      240.029     176.276    -233.380
  C      241.823     175.708    -231.791
  O      241.510     174.357    -232.166
  C      243.343     175.970    -231.910
  N      243.912     176.526    -230.694
  C      244.138     175.619    -229.653
  O      243.838     174.433    -229.790
  N      244.675     176.087    -228.481
  C      244.937     177.352    -228.350
  N      245.461     177.756    -227.163
  C      244.687     178.347    -229.414
  C      244.177     177.870    -230.547
  O      242.802     178.355    -237.415
  O      240.317     178.247    -238.023
  H      240.535     174.284    -232.103
  H      242.812     177.595    -238.023
  H      244.916     179.388    -229.257
  H      243.962     178.526    -231.384
  H      243.873     175.036    -232.134
  H      241.437     175.851    -230.779
  H      241.060     177.674    -232.252
  H      242.327     176.002    -234.477
  H      245.618     177.048    -226.453
  H      242.058     179.001    -233.971
  H      245.699     178.714    -226.950
  H      243.144     178.335    -235.179
  P      238.667     177.016    -232.979
  C      238.975     179.304    -234.104
  O      238.371     178.027    -234.189
  O      239.157     178.018    -231.825
  O      237.527     176.164    -232.531
  H      238.391     178.468    -231.428
  H      238.868     179.806    -235.069
  H      240.039     179.213    -233.870
  H      238.473     179.902    -233.339
  H      242.390     182.041    -237.084
  H      242.614     180.830    -238.323
  H      243.363     180.626    -236.758

 3  4  5  6  7  8  9  10  11  12  13  21  23  27  28  29  30  32 0
 6-311+G(2d,p)
 ****
 34  35 0
 6-311+G(2d,p)
 ****
 1  2  14  15  16  17  18  19  20  22  24  25  26 0
 3-21G
 ****
 31  33  36  37  38  39  40  41  42  43  44  45  46 0
 3-21G
 ****


