%nproc=1
%NoSave
%Mem=1900MB
#P OB98/GEN NMR

erre ene a

0 1
  C     -349.677    -302.142     152.906
  O     -350.055    -301.326     154.032
  P     -351.601    -301.277     154.481
  C     -353.501    -299.469     154.522
  O     -352.213    -299.853     154.056
  C     -353.437    -298.090     155.192
  O     -352.829    -298.185     156.499
  C     -352.600    -297.066     154.432
  O     -353.288    -296.544     153.308
  C     -352.345    -296.030     155.526
  O     -353.461    -295.130     155.647
  C     -352.210    -296.914     156.780
  N     -350.825    -297.072     157.219
  C     -350.329    -296.091     158.068
  O     -350.980    -295.101     158.414
  N     -349.043    -296.267     158.495
  C     -348.193    -297.269     158.101
  O     -347.043    -297.365     158.508
  C     -348.749    -298.228     157.137
  C     -350.021    -298.085     156.743
  O     -351.484    -301.121     156.074
  O     -352.421    -302.473     154.122
  H     -354.226    -295.671     155.938
  H     -352.275    -301.510     156.496
  H     -348.668    -295.588     159.141
  H     -348.106    -299.028     156.783
  H     -350.443    -298.786     156.029
  H     -352.794    -296.481     157.608
  H     -351.463    -295.419     155.317
  H     -351.640    -297.512     154.133
  H     -354.469    -297.728     155.322
  H     -353.852    -300.209     155.245
  H     -354.200    -299.459     153.674
  P     -352.865    -297.124     151.873
  C     -351.129    -296.195     150.144
  O     -351.502    -296.357     151.496
  O     -353.988    -296.461     150.931
  O     -352.811    -298.620     151.825
  H     -354.254    -295.580     151.248
  H     -352.005    -296.082     149.494
  H     -350.547    -297.071     149.821
  H     -350.507    -295.303     150.052
  H     -348.622    -302.061     152.745
  H     -350.198    -301.809     152.033
  H     -349.930    -303.163     153.104

 3  4  5  6  7  8  9  10  11  12  13  23  28  29  30  31  32 0
 6-311+G(2d,p)
 ****
 33  34 0
 6-311+G(2d,p)
 ****
 1  2  14  15  16  17  18  19  20  21  22  24  25  26 0
 3-21G
 ****
 27  35  36  37  38  39  40  41  42  43  44  45 0
 3-21G
 ****


