%nproc=1
%NoSave
%Mem=1900MB
#P OB98/GEN NMR

erre ene a

0 1
  C     -154.584      21.043       3.961
  O     -155.488      20.126       4.543
  H     -153.670      20.509       3.690
  H     -154.331      21.827       4.678
  H     -155.008      21.488       3.057
  P     -156.987      20.606       4.847
  C     -157.976      21.413       7.087
  O     -156.919      21.544       6.145
  C     -158.206      22.743       7.798
  O     -158.620      23.750       6.850
  C     -159.301      22.699       8.858
  O     -158.841      22.057      10.033
  C     -159.602      24.182       9.015
  O     -158.628      24.817       9.857
  C     -159.476      24.677       7.554
  N     -160.766      24.814       6.879
  C     -161.308      26.094       6.832
  O     -160.773      27.069       7.356
  N     -162.504      26.213       6.174
  C     -163.232      25.186       5.647
  O     -164.326      25.340       5.113
  C     -162.627      23.852       5.755
  C     -161.441      23.728       6.356
  O     -158.015      19.527       4.905
  O     -157.294      21.647       3.669
  H     -158.950      24.724      10.774
  H     -157.829      21.215       2.978
  H     -162.918      27.131       6.141
  H     -163.178      23.013       5.353
  H     -160.982      22.750       6.451
  H     -158.972      25.651       7.526
  H     -160.577      24.368       9.466
  H     -160.192      22.200       8.463
  H     -157.252      23.066       8.236
  H     -157.700      20.649       7.821
  H     -158.881      21.092       6.562
  P     -159.763      21.001      10.801
  C     -161.942      21.030      12.146
  O     -160.931      21.822      11.537
  O     -159.034      20.037      11.677
  O     -160.540      20.240       9.628
  H     -160.172      19.341       9.515
  H     -162.667      21.669      12.605
  H     -161.501      20.399      12.889
  H     -162.419      20.426      11.402

 6  7  8  9  10  11  12  13  14  15  16  26  31  32  33  34  35 0
 6-311+G(2d,p)
 ****
 36  37 0
 6-311+G(2d,p)
 ****
 1  2  3  4  5  17  18  19  20  21  22  23  24  25 0
 3-21G
 ****
 27  28  29  30  38  39  40  41  42  43  44  45 0
 3-21G
 ****


