%nproc=1
%NoSave
%Mem=1900MB
#P OB98/GEN NMR

erre ene a

0 1
  C      275.926    -480.905     115.177
  O      275.311    -479.786     114.567
  P      275.961    -478.978     113.354
  C      274.892    -476.825     114.351
  O      275.144    -477.596     113.184
  C      274.277    -475.442     114.041
  O      275.200    -474.671     113.249
  C      273.014    -475.624     113.175
  O      271.773    -475.919     113.783
  C      272.999    -474.414     112.240
  O      272.136    -473.373     112.710
  C      274.459    -473.948     112.246
  N      275.971    -471.648     107.988
  C      275.561    -471.083     109.180
  N      275.363    -469.747     109.164
  N      275.362    -471.775     110.276
  C      275.515    -473.113     110.105
  C      275.929    -473.779     108.975
  C      276.195    -473.003     107.783
  O      276.473    -473.471     106.686
  N      275.902    -475.143     109.149
  C      275.437    -475.300     110.371
  N      275.145    -474.101     110.978
  O      276.320    -479.760     112.127
  O      277.339    -478.468     114.021
  H      272.140    -472.666     112.051
  H      278.020    -478.464     113.316
  H      276.043    -471.072     107.150
  H      275.250    -476.257     110.853
  H      274.524    -472.888     112.520
  H      272.636    -474.703     111.245
  H      275.363    -469.208     108.315
  H      273.199    -476.481     112.520
  H      274.896    -469.328     109.972
  H      274.106    -474.873     114.953
  H      275.843    -476.704     114.882
  H      274.216    -477.372     115.014
  P      271.233    -477.377     114.180
  C      269.238    -476.795     112.687
  O      269.660    -477.435     113.878
  O      271.286    -477.383     115.786
  O      272.029    -478.516     113.630
  H      271.318    -478.309     116.108
  H      268.158    -476.630     112.726
  H      269.466    -477.444     111.822
  H      269.747    -475.833     112.545
  H      275.299    -481.272     115.962
  H      276.873    -480.615     115.582
  H      276.071    -481.674     114.447

 3  4  5  6  7  8  9  10  11  12  23  26  30  31 0
 6-311+G(2d,p)
 ****
 33  35  36  37  38 0
 6-311+G(2d,p)
 ****
 1  2  13  14  15  16  17  18  19  20  21  22  24  25 0
 3-21G
 ****
 27  28  29  32  34  39  40  41  42  43  44  45  46  47  48  49 0
 3-21G
 ****


