%nproc=1
%NoSave
%Mem=1900MB
#P OB98/GEN NMR

erre ene a

0 1
  C      145.262    -103.802     316.846
  O      146.288    -103.018     317.419
  H      145.478    -104.856     317.033
  H      145.214    -103.638     315.766
  H      144.300    -103.552     317.303
  P      146.218    -101.436     317.170
  C      146.333     -99.874     315.096
  O      146.315    -101.209     315.587
  C      147.108     -99.826     313.782
  O      146.341    -100.472     312.738
  C      147.377     -98.417     313.272
  O      148.462     -97.791     313.934
  C      147.673     -98.693     311.808
  O      149.045     -99.062     311.606
  C      146.728     -99.866     311.488
  N      145.573     -99.431     310.708
  C      145.637     -99.689     309.341
  O      146.592    -100.246     308.803
  N      144.575     -99.246     308.601
  C      143.507     -98.544     309.074
  O      142.616     -98.128     308.346
  C      143.501     -98.287     310.524
  C      144.521     -98.732     311.263
  O      147.629    -100.917     317.718
  O      145.071    -100.745     317.832
  H      147.503    -100.458     318.569
  H      149.577     -98.311     311.937
  H      144.603     -99.425     307.608
  H      142.668     -97.729     310.933
  H      144.545     -98.544     312.331
  H      147.256    -100.638     310.915
  H      147.483     -97.813     311.200
  H      146.467     -97.808     313.342
  H      148.048    -100.375     313.911
  H      146.827     -99.222     315.823
  H      145.303     -99.531     314.958
  P      148.350     -96.218     314.229
  C      147.104     -94.324     312.894
  O      147.802     -95.559     312.875
  O      149.898     -95.818     314.281
  O      147.573     -95.906     315.463
  H      150.444     -96.418     313.743
  H      146.824     -94.057     311.896
  H      147.736     -93.563     313.303
  H      146.225     -94.420     313.497

 6  7  8  9  10  11  12  13  14  15  16  27  31  32  33  34  35 0
 6-311+G(2d,p)
 ****
 36  37 0
 6-311+G(2d,p)
 ****
 1  2  3  4  5  17  18  19  20  21  22  23  24  25 0
 3-21G
 ****
 26  28  29  30  38  39  40  41  42  43  44  45 0
 3-21G
 ****


