%nproc=1
%NoSave
%Mem=1900MB
#P OB98/GEN NMR

erre ene a

0 1
  C     -228.788    -192.173     740.716
  O     -229.872    -192.603     741.512
  H     -228.762    -191.081     740.710
  H     -228.900    -192.525     739.682
  H     -227.847    -192.543     741.124
  P     -230.214    -194.165     741.556
  C     -232.526    -193.467     742.512
  O     -231.818    -194.256     741.559
  C     -233.912    -193.117     741.985
  O     -233.814    -192.196     740.874
  C     -234.680    -194.328     741.463
  O     -235.174    -195.112     742.527
  C     -235.721    -193.656     740.592
  O     -236.803    -193.143     741.385
  C     -234.906    -192.486     739.961
  N     -234.411    -192.796     738.638
  C     -235.379    -192.880     737.620
  O     -236.562    -192.691     737.879
  N     -234.962    -193.201     736.349
  C     -233.705    -193.406     736.101
  N     -233.369    -193.724     734.822
  C     -232.647    -193.321     737.125
  C     -233.070    -193.028     738.359
  O     -229.551    -194.977     742.629
  O     -229.829    -194.675     740.083
  H     -237.511    -192.902     740.750
  H     -228.886    -194.960     740.053
  H     -231.619    -193.493     736.878
  H     -232.364    -192.930     739.175
  H     -235.520    -191.578     739.907
  H     -236.141    -194.344     739.849
  H     -234.026    -194.925     740.808
  H     -234.475    -192.616     742.790
  H     -234.129    -193.790     734.138
  H     -231.935    -192.550     742.669
  H     -232.415    -193.816     734.489
  H     -232.607    -193.996     743.472
  P     -235.232    -196.718     742.410
  C     -236.879    -196.553     744.398
  O     -236.618    -197.140     743.121
  O     -234.016    -197.436     742.884
  O     -235.547    -196.949     740.853
  H     -234.751    -196.780     740.290
  H     -237.819    -196.905     744.767
  H     -236.910    -195.488     744.301
  H     -236.103    -196.826     745.082

 6  7  8  9  10  11  12  13  14  15  16  26  30  31  32  33  35 0
 6-311+G(2d,p)
 ****
 37  38 0
 6-311+G(2d,p)
 ****
 1  2  3  4  5  17  18  19  20  21  22  23  24  25 0
 3-21G
 ****
 27  28  29  34  36  39  40  41  42  43  44  45  46 0
 3-21G
 ****


