%nproc=1
%NoSave
%Mem=1900MB
#P OB98/GEN NMR

erre ene a

0 1
  C      132.523    -169.327    -116.228
  O      131.542    -170.255    -116.703
  P      130.906    -171.269    -115.632
  C      131.622    -173.610    -114.710
  O      131.823    -172.587    -115.672
  C      132.256    -174.926    -115.176
  O      131.625    -175.366    -116.416
  C      133.769    -174.852    -115.424
  O      134.322    -176.105    -114.995
  C      133.865    -174.722    -116.931
  O      135.136    -175.127    -117.422
  C      132.689    -175.604    -117.366
  N      132.256    -175.338    -118.735
  C      132.850    -176.095    -119.741
  O      133.754    -176.899    -119.528
  N      132.394    -175.857    -121.013
  C      131.485    -174.905    -121.373
  O      131.113    -174.737    -122.529
  C      130.979    -174.061    -120.279
  C      131.384    -174.313    -119.035
  O      129.556    -171.702    -116.368
  O      130.725    -170.652    -114.283
  H      129.650    -171.790    -117.332
  H      135.822    -174.535    -117.056
  H      132.790    -176.419    -121.755
  H      130.297    -173.256    -120.537
  H      131.050    -173.695    -118.213
  H      132.959    -176.666    -117.289
  H      133.693    -173.679    -117.227
  H      134.248    -174.031    -114.880
  H      132.040    -175.693    -114.418
  H      130.552    -173.770    -114.556
  H      132.038    -173.288    -113.750
  P      135.643    -176.078    -114.075
  C      138.206    -175.827    -114.563
  O      136.876    -175.702    -115.024
  O      135.848    -177.655    -113.831
  O      135.513    -175.311    -112.798
  H      135.775    -178.176    -114.646
  H      138.882    -175.751    -115.420
  H      138.364    -176.792    -114.081
  H      138.433    -175.019    -113.864
  H      132.860    -168.717    -117.040
  H      133.353    -169.864    -115.817
  H      132.090    -168.706    -115.471

 3  4  5  6  7  8  9  10  11  12  13  24  28  29  30  31  32 0
 6-311+G(2d,p)
 ****
 33  34 0
 6-311+G(2d,p)
 ****
 1  2  14  15  16  17  18  19  20  21  22  23  25  26  27 0
 3-21G
 ****
 35  36  37  38  39  40  41  42  43  44  45 0
 3-21G
 ****


