%nproc=1
%NoSave
%Mem=1900MB
#P OB98/GEN NMR

erre ene a

0 1
  C      283.062    -385.050    -121.626
  O      281.746    -385.438    -121.945
  P      281.450    -386.934    -122.445
  C      280.836    -387.277    -124.914
  O      281.885    -387.029    -123.981
  C      280.106    -385.979    -125.254
  O      281.031    -385.000    -125.769
  C      279.031    -386.129    -126.319
  O      277.866    -386.730    -125.781
  C      278.847    -384.681    -126.772
  O      277.988    -383.972    -125.859
  C      280.286    -384.149    -126.672
  N      279.921    -382.465    -131.485
  C      279.024    -382.505    -130.475
  N      279.189    -383.013    -129.226
  C      280.412    -383.520    -129.079
  C      281.423    -383.587    -130.038
  C      281.146    -383.008    -131.286
  N      282.073    -382.903    -132.301
  N      282.540    -384.231    -129.515
  C      282.205    -384.548    -128.282
  N      280.959    -384.089    -127.958
  O      280.087    -387.459    -122.132
  O      282.572    -387.807    -121.700
  H      277.134    -384.435    -125.849
  H      282.138    -388.471    -121.121
  H      278.053    -382.069    -130.685
  H      282.833    -385.092    -127.585
  H      280.314    -383.136    -126.247
  H      278.412    -384.602    -127.765
  H      279.413    -386.730    -127.160
  H      279.676    -385.576    -124.328
  H      280.138    -387.995    -124.466
  H      281.813    -382.335    -133.098
  H      283.059    -383.017    -132.075
  H      281.257    -387.724    -125.827
  P      276.732    -387.302    -126.765
  C      274.583    -385.979    -127.186
  O      275.976    -386.040    -127.396
  O      275.853    -388.361    -126.182
  O      277.575    -387.879    -128.000
  H      277.110    -388.655    -128.378
  H      274.075    -386.673    -127.879
  H      274.237    -384.959    -127.392
  H      274.323    -386.248    -126.163
  H      283.066    -384.026    -121.314
  H      283.686    -385.163    -122.488
  H      283.433    -385.666    -120.834

 3  4  5  6  7  8  9  10  11  12  22  25  29  30  31  32 0
 6-311+G(2d,p)
 ****
 33  36  37 0
 6-311+G(2d,p)
 ****
 1  2  13  14  15  16  17  18  19  20  21  23  24  26 0
 3-21G
 ****
 27  28  34  35  38  39  40  41  42  43  44  45  46  47  48 0
 3-21G
 ****


