%nproc=1
%NoSave
%Mem=1900MB
#P OB98/GEN NMR

erre ene a

0 1
  C     -298.364      55.020      40.610
  O     -297.128      55.437      40.067
  H     -299.005      55.897      40.739
  H     -298.210      54.549      41.586
  H     -298.856      54.316      39.932
  P     -296.004      54.300      39.898
  C     -294.314      53.349      41.647
  O     -295.562      53.985      41.412
  C     -294.195      52.977      43.122
  O     -295.451      52.464      43.619
  C     -293.168      51.888      43.407
  O     -291.834      52.373      43.416
  C     -293.616      51.447      44.788
  O     -293.200      52.419      45.766
  C     -295.153      51.451      44.619
  N     -295.691      50.153      44.210
  C     -296.286      49.378      45.213
  O     -296.336      49.781      46.372
  N     -296.787      48.139      44.882
  C     -296.710      47.717      43.655
  N     -297.209      46.477      43.388
  C     -296.107      48.509      42.569
  C     -295.622      49.699      42.911
  O     -294.741      55.100      39.328
  O     -296.394      53.106      39.093
  H     -293.644      52.185      46.601
  H     -293.951      54.507      39.306
  H     -296.056      48.109      41.566
  H     -295.163      50.337      42.164
  H     -295.649      51.758      45.550
  H     -293.195      50.485      45.092
  H     -293.272      51.043      42.718
  H     -293.971      53.894      43.685
  H     -297.558      45.935      44.165
  H     -293.515      54.043      41.365
  H     -297.032      45.998      42.513
  H     -294.232      52.444      41.036
  P     -290.648      51.291      43.437
  C     -289.731      49.615      45.197
  O     -290.813      50.438      44.787
  O     -289.351      52.182      43.721
  O     -290.511      50.480      42.184
  H     -288.584      51.863      43.208
  H     -289.989      49.114      46.106
  H     -288.863      50.220      45.357
  H     -289.525      48.891      44.436

 6  7  8  9  10  11  12  13  14  15  16  26  30  31  32  33  35 0
 6-311+G(2d,p)
 ****
 37  38 0
 6-311+G(2d,p)
 ****
 1  2  3  4  5  17  18  19  20  21  22  23  24  25 0
 3-21G
 ****
 27  28  29  34  36  39  40  41  42  43  44  45  46 0
 3-21G
 ****


