%nproc=1
%NoSave
%Mem=1900MB
#P OB98/GEN NMR

erre ene a

0 1
  C     -513.016     -80.670    -263.788
  O     -513.836     -79.632    -264.283
  H     -513.421     -81.064    -262.852
  H     -512.987     -81.476    -264.528
  H     -511.997     -80.300    -263.629
  P     -514.093     -78.395    -263.293
  C     -513.269     -76.811    -265.172
  O     -513.156     -77.197    -263.811
  C     -512.123     -75.881    -265.552
  O     -510.855     -76.551    -265.364
  C     -512.125     -75.427    -267.008
  O     -513.054     -74.381    -267.235
  C     -510.688     -74.946    -267.153
  O     -510.563     -73.620    -266.604
  C     -509.911     -75.950    -266.287
  N     -506.649     -77.026    -270.109
  C     -507.083     -75.851    -269.595
  N     -507.957     -75.641    -268.593
  C     -508.390     -76.807    -268.085
  C     -508.040     -78.082    -268.503
  C     -507.131     -78.172    -269.569
  N     -506.710     -79.375    -270.095
  N     -508.671     -79.038    -267.737
  C     -509.398     -78.356    -266.869
  N     -509.264     -77.004    -267.046
  O     -513.385     -78.853    -261.930
  O     -515.525     -78.041    -263.073
  H     -511.182     -73.055    -267.098
  H     -513.906     -78.520    -261.174
  H     -506.669     -74.956    -270.055
  H     -510.022     -78.797    -266.105
  H     -509.148     -75.449    -265.679
  H     -510.351     -74.903    -268.194
  H     -512.297     -76.272    -267.689
  H     -512.147     -75.018    -264.873
  H     -514.221     -76.287    -265.324
  H     -505.921     -79.377    -270.719
  H     -507.072     -80.227    -269.681
  H     -513.257     -77.712    -265.797
  P     -514.521     -74.786    -267.752
  C     -515.668     -73.377    -265.897
  O     -515.478     -74.669    -266.465
  O     -514.399     -76.371    -267.973
  O     -514.979     -74.086    -268.984
  H     -515.054     -76.667    -268.631
  H     -516.323     -73.451    -265.054
  H     -516.100     -72.726    -266.628
  H     -514.724     -72.984    -265.582

 6  7  8  9  10  11  12  13  14  15  25  28  32  33  34  35 0
 6-311+G(2d,p)
 ****
 36  39  40 0
 6-311+G(2d,p)
 ****
 1  2  3  4  5  16  17  18  19  20  21  22  23  24 0
 3-21G
 ****
 26  27  29  30  31  37  38  41  42  43  44  45  46  47  48 0
 3-21G
 ****


