%nproc=1
%NoSave
%Mem=1900MB
#P OB98/GEN NMR

erre ene a

0 1
  C     -794.162    -480.129    -169.998
  O     -793.309    -480.264    -168.887
  H     -795.017    -480.801    -169.863
  H     -793.644    -480.416    -170.917
  H     -794.533    -479.104    -170.080
  P     -791.943    -479.421    -168.837
  C     -790.902    -481.417    -167.601
  O     -791.124    -480.014    -167.582
  C     -790.512    -481.934    -166.213
  O     -789.305    -481.260    -165.770
  C     -791.592    -481.701    -165.145
  O     -791.789    -482.900    -164.390
  C     -790.985    -480.628    -164.252
  O     -791.515    -480.637    -162.931
  C     -789.495    -480.960    -164.374
  N     -788.648    -479.865    -163.921
  C     -788.551    -479.698    -162.534
  O     -789.150    -480.457    -161.773
  N     -787.818    -478.646    -162.047
  C     -787.275    -477.806    -162.870
  N     -786.586    -476.770    -162.323
  C     -787.381    -477.929    -164.339
  C     -788.072    -478.973    -164.791
  O     -792.123    -477.940    -168.833
  O     -791.091    -479.946    -170.089
  H     -792.436    -480.297    -162.962
  H     -790.428    -479.259    -170.332
  H     -786.912    -477.197    -164.984
  H     -788.204    -479.147    -165.854
  H     -789.244    -481.860    -163.796
  H     -791.181    -479.642    -164.691
  H     -792.547    -481.382    -165.561
  H     -790.259    -483.000    -166.297
  H     -786.549    -476.719    -161.309
  H     -790.109    -481.635    -168.329
  H     -786.143    -476.037    -162.861
  H     -791.829    -481.909    -167.916
  P     -793.300    -483.224    -163.957
  C     -792.620    -484.298    -161.692
  O     -793.267    -484.471    -162.946
  O     -793.947    -483.822    -165.292
  O     -794.047    -482.029    -163.472
  H     -794.592    -483.187    -165.661
  H     -792.679    -485.208    -161.132
  H     -793.101    -483.512    -161.148
  H     -791.593    -484.044    -161.853

 6  7  8  9  10  11  12  13  14  15  16  26  30  31  32  33  35 0
 6-311+G(2d,p)
 ****
 37  38 0
 6-311+G(2d,p)
 ****
 1  2  3  4  5  17  18  19  20  21  22  23  24  25 0
 3-21G
 ****
 27  28  29  34  36  39  40  41  42  43  44  45  46 0
 3-21G
 ****


