%nproc=1
%NoSave
%Mem=1900MB
#P OB98/GEN NMR

erre ene a

0 1
  C     -236.273     297.085       5.809
  O     -234.866     297.139       5.783
  P     -233.944     296.937       7.072
  C     -232.848     299.311       7.221
  O     -233.749     298.363       7.785
  C     -232.002     299.988       8.311
  O     -232.895     300.689       9.220
  C     -231.238     298.947       9.152
  O     -229.901     299.321       9.464
  C     -232.184     298.696      10.325
  O     -231.539     298.132      11.461
  C     -232.803     300.076      10.515
  N     -236.043     302.495      13.612
  C     -234.868     302.958      13.043
  N     -234.423     304.146      13.499
  N     -234.193     302.297      12.142
  C     -234.706     301.077      11.864
  C     -235.860     300.507      12.362
  C     -236.615     301.257      13.335
  O     -237.592     300.840      13.957
  N     -236.029     299.221      11.909
  C     -234.964     298.997      11.170
  N     -234.121     300.079      11.132
  O     -232.745     296.065       6.913
  O     -234.957     296.194       8.089
  H     -231.108     297.310      11.175
  H     -234.423     295.579       8.628
  H     -236.480     303.018      14.368
  H     -234.744     298.067      10.653
  H     -232.176     300.712      11.151
  H     -232.925     297.972       9.994
  H     -234.838     304.611      14.298
  H     -231.109     298.018       8.595
  H     -233.460     304.388      13.286
  H     -231.339     300.724       7.846
  H     -233.462     300.062       6.708
  H     -232.208     298.835       6.470
  P     -228.586     298.410       9.523
  C     -228.762     298.131      12.073
  O     -228.671     297.477      10.815
  O     -227.403     299.421       9.892
  O     -228.273     297.688       8.255
  H     -226.600     299.176       9.378
  H     -228.546     297.417      12.864
  H     -229.783     298.510      12.206
  H     -228.054     298.960      12.130
  H     -236.655     297.251       4.823
  H     -236.647     297.841       6.468
  H     -236.587     296.123       6.156

 3  4  5  6  7  8  9  10  11  12  23  26  30  31 0
 6-311+G(2d,p)
 ****
 33  35  36  37  38 0
 6-311+G(2d,p)
 ****
 1  2  13  14  15  16  17  18  19  20  21  22  24  25 0
 3-21G
 ****
 27  28  29  32  34  39  40  41  42  43  44  45  46  47  48  49 0
 3-21G
 ****


