%nproc=1
%NoSave
%Mem=1900MB
#P OB98/GEN NMR

erre ene a

0 1
  C     -488.142     -98.740    -777.320
  O     -487.470     -99.214    -778.467
  H     -489.159     -99.130    -777.314
  H     -488.188     -97.646    -777.356
  H     -487.632     -99.060    -776.408
  P     -485.874     -99.098    -778.489
  C     -485.742     -98.665    -781.048
  O     -485.401     -99.530    -779.962
  C     -485.050     -99.139    -782.323
  O     -483.636     -99.321    -782.062
  C     -485.592    -100.463    -782.885
  O     -485.580    -100.398    -784.318
  C     -484.544    -101.464    -782.446
  O     -484.536    -102.637    -783.261
  C     -483.277    -100.618    -782.563
  N     -479.821    -104.249    -782.793
  C     -480.674    -103.757    -783.756
  N     -480.651    -104.369    -784.968
  N     -481.493    -102.758    -783.563
  C     -481.395    -102.230    -782.320
  C     -480.601    -102.625    -781.269
  C     -479.720    -103.747    -781.495
  O     -478.949    -104.234    -780.672
  N     -480.854    -101.866    -780.159
  C     -481.817    -101.031    -780.519
  N     -482.181    -101.211    -781.821
  O     -485.422    -100.337    -777.577
  O     -485.318     -97.808    -777.988
  H     -485.451    -102.985    -783.304
  H     -485.282    -100.037    -776.659
  H     -479.227    -105.045    -782.985
  H     -482.281    -100.299    -779.880
  H     -482.941    -100.505    -783.604
  H     -484.723    -101.765    -781.410
  H     -480.031    -105.135    -785.196
  H     -486.602    -100.719    -782.523
  H     -481.244    -103.997    -785.698
  H     -485.142     -98.343    -783.086
  H     -485.410     -97.651    -780.813
  H     -486.830     -98.657    -781.174
  P     -486.959    -100.048    -785.065
  C     -487.191    -101.576    -787.164
  O     -486.776    -100.322    -786.637
  O     -487.017     -98.444    -784.974
  O     -488.166    -100.672    -784.448
  H     -487.943     -98.155    -784.883
  H     -487.003    -101.600    -788.217
  H     -488.238    -101.709    -786.985
  H     -486.645    -102.362    -786.686

 6  7  8  9  10  11  12  13  14  15  26  29  33  34 0
 6-311+G(2d,p)
 ****
 36  38  39  40  41 0
 6-311+G(2d,p)
 ****
 1  2  3  4  5  16  17  18  19  20  21  22  23  24  25 0
 3-21G
 ****
 27  28  30  31  32  35  37  42  43  44  45  46  47 0
 3-21G
 ****
 48  49 0
 3-21G
 ****


