%nproc=1
%NoSave
%Mem=1900MB
#P OB98/GEN NMR

erre ene a

0 1
  C      227.686     681.424    -671.118
  O      228.007     681.668    -672.484
  P      228.213     683.113    -673.126
  C      230.806     682.726    -673.209
  O      229.719     683.575    -672.844
  C      232.145     683.194    -672.610
  O      232.205     682.854    -671.195
  C      233.317     682.457    -673.273
  O      233.829     682.926    -674.505
  C      234.363     682.309    -672.175
  O      235.319     683.368    -672.186
  C      233.521     682.377    -670.888
  N      234.874     679.566    -666.824
  C      235.251     680.862    -667.155
  N      236.128     681.471    -666.334
  N      234.798     681.492    -668.208
  C      234.004     680.734    -669.001
  C      233.570     679.441    -668.789
  C      234.012     678.771    -667.581
  O      233.713     677.644    -667.230
  N      232.781     678.997    -669.803
  C      232.738     680.002    -670.662
  N      233.464     681.097    -670.201
  O      227.132     684.112    -672.842
  O      228.197     682.815    -674.717
  H      234.903     684.151    -671.807
  H      227.797     683.601    -675.138
  H      235.226     679.149    -665.986
  H      232.207     680.016    -671.593
  H      233.945     683.088    -670.178
  H      234.917     681.375    -672.296
  H      236.587     681.005    -665.573
  H      232.966     681.429    -673.476
  H      236.551     682.322    -666.690
  H      232.241     684.278    -672.653
  H      230.858     682.729    -674.306
  H      230.599     681.702    -672.902
  P      233.457     682.364    -675.961
  C      232.852     684.634    -676.989
  O      232.381     683.354    -676.613
  O      232.593     681.052    -675.672
  O      234.631     682.059    -676.836
  H      232.548     680.498    -676.474
  H      231.994     685.312    -677.123
  H      233.393     684.552    -677.941
  H      233.524     685.062    -676.218
  H      227.605     680.370    -670.953
  H      226.755     681.895    -670.881
  H      228.457     681.824    -670.493

 3  4  5  6  7  8  9  10  11  12  23  26  30  31 0
 6-311+G(2d,p)
 ****
 33  35  36  37  38 0
 6-311+G(2d,p)
 ****
 1  2  13  14  15  16  17  18  19  20  21  22  24  25 0
 3-21G
 ****
 27  28  29  32  34  39  40  41  42  43  44  45  46  47  48  49 0
 3-21G
 ****


