%nproc=1
%NoSave
%Mem=1900MB
#P OB98/GEN NMR

erre ene a

0 1
  C      246.498    -278.067     202.529
  O      245.416    -278.260     203.443
  P      244.331    -279.398     203.149
  C      244.943    -280.499     205.408
  O      243.902    -280.089     204.530
  C      244.352    -280.975     206.739
  O      243.815    -279.869     207.504
  C      243.176    -281.927     206.558
  O      243.470    -283.211     206.049
  C      242.491    -281.854     207.912
  O      243.112    -282.718     208.863
  C      242.717    -280.373     208.296
  N      241.517    -279.555     208.122
  C      240.644    -279.512     209.204
  O      240.820    -280.148     210.242
  N      239.529    -278.734     209.041
  C      239.192    -278.041     207.916
  O      238.168    -277.379     207.815
  C      240.142    -278.145     206.796
  C      241.242    -278.885     206.946
  O      244.664    -280.340     202.042
  O      243.021    -278.545     202.774
  H      243.071    -283.625     208.505
  H      242.578    -278.992     202.027
  H      238.889    -278.686     209.818
  H      239.904    -277.612     205.884
  H      241.955    -278.974     206.135
  H      243.025    -280.294     209.346
  H      241.440    -282.151     207.848
  H      242.486    -281.474     205.831
  H      245.147    -281.429     207.333
  H      245.635    -279.670     205.575
  H      245.524    -281.293     204.926
  P      243.768    -283.494     204.499
  C      245.950    -284.891     204.629
  O      244.561    -284.885     204.383
  O      244.263    -282.354     203.676
  O      242.308    -283.909     203.969
  H      242.220    -283.609     203.044
  H      246.323    -285.909     204.489
  H      246.159    -284.579     205.655
  H      246.464    -284.231     203.926
  H      247.122    -277.271     202.878
  H      246.109    -277.818     201.564
  H      247.072    -278.967     202.461

 3  4  5  6  7  8  9  10  11  12  13  23  28  29  30  31  32 0
 6-311+G(2d,p)
 ****
 33  34 0
 6-311+G(2d,p)
 ****
 1  2  14  15  16  17  18  19  20  21  22  24  25  26  27 0
 3-21G
 ****
 35  36  37  38  39  40  41  42  43  44  45 0
 3-21G
 ****


