%nproc=1
%NoSave
%Mem=1900MB
#P OB98/GEN NMR

erre ene a

0 1
  C     -560.254      13.082      66.714
  O     -559.731      12.030      67.491
  P     -558.883      12.340      68.819
  C     -556.716      11.213      68.000
  O     -557.785      11.169      68.936
  C     -555.717      10.098      68.293
  O     -555.185      10.213      69.637
  C     -556.317       8.700      68.245
  O     -556.766       8.227      66.995
  C     -555.232       7.890      68.940
  O     -554.163       7.575      68.045
  C     -554.750       8.884      70.026
  N     -555.239       8.523      71.355
  C     -554.276       8.104      72.262
  O     -553.078       8.025      71.994
  N     -554.740       7.729      73.497
  C     -556.049       7.695      73.884
  O     -556.398       7.308      74.993
  C     -557.020       8.137      72.879
  C     -556.585       8.524      71.678
  O     -559.690      12.558      70.054
  O     -557.985      13.599      68.398
  H     -554.533       7.014      67.335
  H     -557.389      13.439      67.640
  H     -554.055       7.405      74.165
  H     -558.066       8.136      73.160
  H     -557.287       8.858      70.913
  H     -553.654       8.913      70.061
  H     -555.619       6.943      69.329
  H     -557.194       8.682      68.901
  H     -554.876      10.202      67.603
  H     -556.208      12.177      68.086
  H     -557.116      11.134      66.981
  P     -558.218       7.585      66.773
  C     -557.251       5.577      65.442
  O     -558.164       6.656      65.465
  O     -559.390       8.501      66.909
  O     -558.271       6.494      67.948
  H     -559.201       6.388      68.247
  H     -557.317       5.086      64.470
  H     -557.503       4.851      66.218
  H     -556.228       5.938      65.579
  H     -560.784      12.678      65.877
  H     -559.453      13.700      66.365
  H     -560.922      13.668      67.310

 3  4  5  6  7  8  9  10  11  12  13  23  28  29  30  31  32 0
 6-311+G(2d,p)
 ****
 33  34 0
 6-311+G(2d,p)
 ****
 1  2  14  15  16  17  18  19  20  21  22  24  25  26  27 0
 3-21G
 ****
 35  36  37  38  39  40  41  42  43  44  45 0
 3-21G
 ****


