%nproc=1
%NoSave
%Mem=1900MB
#P OB98/GEN NMR

erre ene a

0 1
  C        8.842     -41.176      14.426
  O        9.657     -42.130      15.109
  P       10.547     -43.089      14.178
  C       12.052     -43.849      16.146
  O       11.158     -44.241      15.116
  C       11.295     -43.522      17.438
  O       10.510     -44.672      17.879
  C       12.212     -43.129      18.607
  O       11.508     -42.140      19.368
  C       12.316     -44.433      19.381
  O       12.803     -44.263      20.702
  C       10.880     -44.927      19.251
  N        9.132     -48.191      22.758
  C        9.167     -46.842      22.718
  N        9.655     -46.042      21.746
  C       10.138     -46.779      20.731
  C       10.174     -48.160      20.629
  C        9.638     -48.882      21.708
  N        9.616     -50.257      21.768
  N       10.773     -48.547      19.439
  C       11.152     -47.413      18.880
  N       10.719     -46.323      19.579
  O       11.811     -42.183      13.807
  O        9.825     -43.584      12.969
  H       13.042     -45.132      21.082
  H       11.705     -41.798      12.917
  H        8.751     -46.336      23.585
  H       11.737     -47.326      17.975
  H       10.189     -44.363      19.891
  H       13.005     -45.108      18.861
  H       13.176     -42.720      18.291
  H       10.590     -42.708      17.228
  H       12.623     -42.971      15.835
  H        9.214     -50.684      22.588
  H        9.994     -50.808      21.013
  H       12.784     -44.649      16.307
  P       12.263     -40.775      19.748
  C       10.449     -38.964      19.826
  O       11.172     -39.928      20.566
  O       12.243     -40.024      18.332
  O       13.620     -40.916      20.349
  H       11.349     -40.027      17.945
  H        9.691     -38.520      20.477
  H        9.953     -39.435      18.973
  H       11.123     -38.176      19.480
  H        8.297     -40.596      15.141
  H        8.156     -41.688      13.784
  H        9.463     -40.530      13.841

 3  4  5  6  7  8  9  10  11  12  22  25  29  30  31  32 0
 6-311+G(2d,p)
 ****
 33  36  37 0
 6-311+G(2d,p)
 ****
 1  2  13  14  15  16  17  18  19  20  21  23  24  26 0
 3-21G
 ****
 27  28  34  35  38  39  40  41  42  43  44  45  46  47  48 0
 3-21G
 ****


