%nproc=1
%NoSave
%Mem=1900MB
#P OB98/GEN NMR

erre ene a

0 1
  C     -898.530    -115.671    -511.392
  O     -897.620    -115.383    -510.347
  P     -898.060    -115.526    -508.807
  C     -899.080    -113.206    -508.293
  O     -897.940    -114.051    -508.187
  C     -899.120    -112.189    -507.147
  O     -899.250    -112.865    -505.878
  C     -897.860    -111.326    -507.029
  O     -897.860    -110.317    -508.022
  C     -897.970    -110.835    -505.604
  O     -898.850    -109.698    -505.531
  C     -898.600    -112.035    -504.874
  N     -897.610    -112.809    -504.113
  C     -897.660    -112.646    -502.721
  O     -898.480    -111.865    -502.217
  N     -896.750    -113.318    -501.954
  C     -895.840    -114.077    -502.519
  N     -894.980    -114.715    -501.674
  C     -895.740    -114.246    -503.971
  C     -896.650    -113.586    -504.690
  O     -897.370    -116.608    -508.044
  O     -899.650    -115.725    -508.917
  H     -898.810    -109.392    -504.573
  H     -899.870    -116.639    -509.232
  H     -894.980    -114.872    -504.390
  H     -896.640    -113.651    -505.791
  H     -899.370    -111.710    -504.195
  H     -897.000    -110.516    -505.190
  H     -896.970    -111.978    -507.136
  H     -900.000    -111.548    -507.290
  H     -895.080    -114.520    -500.679
  H     -899.970    -113.842    -508.243
  H     -894.240    -115.285    -502.012
  H     -899.060    -112.709    -509.252
  P     -896.590    -110.162    -508.995
  C     -894.880    -109.826    -507.084
  O     -895.500    -109.231    -508.242
  O     -896.900    -109.745    -510.392
  O     -895.900    -111.610    -508.962
  H     -895.660    -111.873    -509.865
  H     -893.980    -109.242    -506.873
  H     -894.640    -110.868    -507.262
  H     -895.550    -109.720    -506.248
  H     -898.050    -115.516    -512.336
  H     -899.379    -115.025    -511.314
  H     -898.849    -116.690    -511.317

 3  4  5  6  7  8  9  10  11  12  13  23  27  28  29  30  32 0
 6-311+G(2d,p)
 ****
 34  35 0
 6-311+G(2d,p)
 ****
 1  2  14  15  16  17  18  19  20  21  22  24  25  26 0
 3-21G
 ****
 31  33  36  37  38  39  40  41  42  43  44  45  46 0
 3-21G
 ****


