%nproc=1
%NoSave
%Mem=1900MB
#P OB98/GEN NMR

erre ene a

0 1
  C      670.942     722.557    -162.636
  O      669.636     722.683    -163.145
  H      671.649     722.957    -163.366
  H      671.175     721.499    -162.465
  H      671.053     723.106    -161.696
  P      668.427     722.337    -162.146
  C      667.102     721.137    -164.035
  O      667.690     721.038    -162.742
  C      666.747     719.745    -164.565
  O      667.957     718.984    -164.853
  C      665.936     718.894    -163.598
  O      664.547     719.204    -163.657
  C      666.208     717.497    -164.138
  O      665.418     717.279    -165.327
  C      667.697     717.604    -164.509
  N      670.786     713.946    -162.809
  C      670.026     714.004    -163.954
  N      670.071     712.917    -164.760
  N      669.264     715.011    -164.289
  C      669.297     716.024    -163.373
  C      670.023     716.083    -162.193
  C      670.869     714.961    -161.858
  O      671.582     714.869    -160.860
  N      669.818     717.278    -161.549
  C      668.944     717.919    -162.307
  N      668.596     717.195    -163.433
  O      667.366     723.510    -162.414
  O      668.792     722.263    -160.698
  H      664.481     717.314    -165.055
  H      666.934     723.744    -161.573
  H      671.343     713.125    -162.602
  H      668.549     718.904    -162.104
  H      667.952     716.993    -165.376
  H      665.952     716.722    -163.420
  H      670.591     712.076    -164.550
  H      666.325     718.973    -162.570
  H      669.531     712.939    -165.623
  H      666.214     719.868    -165.511
  H      667.819     721.616    -164.716
  H      666.207     721.763    -163.974
  P      663.609     718.686    -162.438
  C      661.537     718.902    -164.008
  O      662.307     718.058    -163.150
  O      663.067     720.038    -161.798
  O      664.293     717.824    -161.451
  H      662.793     719.890    -160.868
  H      660.711     718.349    -164.404
  H      662.152     719.250    -164.812
  H      661.172     719.739    -163.451

 6  7  8  9  10  11  12  13  14  15  26  29  33  34 0
 6-311+G(2d,p)
 ****
 36  38  39  40  41 0
 6-311+G(2d,p)
 ****
 1  2  3  4  5  16  17  18  19  20  21  22  23  24  25 0
 3-21G
 ****
 27  28  30  31  32  35  37  42  43  44  45  46  47 0
 3-21G
 ****
 48  49 0
 3-21G
 ****


