%nproc=1
%NoSave
%Mem=1900MB
#P OB98/GEN NMR

erre ene a

0 1
  C      416.132    -471.640     699.039
  O      417.190    -471.720     698.104
  H      415.710    -472.640     699.181
  H      415.348    -470.976     698.664
  H      416.503    -471.275     700.001
  P      417.961    -470.354     697.773
  C      415.804    -469.031     697.178
  O      417.043    -469.561     696.724
  C      415.184    -468.167     696.084
  O      415.964    -466.961     695.912
  C      415.156    -468.831     694.713
  O      414.103    -469.770     694.588
  C      415.002    -467.621     693.805
  O      413.630    -467.215     693.698
  C      415.821    -466.549     694.531
  N      418.259    -465.000     690.321
  C      416.948    -464.996     690.660
  N      416.381    -465.420     691.807
  C      417.319    -465.848     692.671
  C      418.687    -465.907     692.468
  C      419.158    -465.455     691.226
  N      420.488    -465.482     690.867
  N      419.318    -466.449     693.575
  C      418.346    -466.704     694.427
  N      417.125    -466.357     693.928
  O      419.205    -470.847     696.893
  O      418.397    -469.570     698.961
  H      413.141    -467.988     693.348
  H      420.004    -470.889     697.451
  H      416.269    -464.614     689.903
  H      418.481    -467.145     695.410
  H      415.316    -465.571     694.535
  H      415.360    -467.840     692.798
  H      416.122    -469.304     694.508
  H      414.169    -467.876     696.396
  H      415.976    -468.418     698.068
  H      415.140    -469.859     697.441
  H      420.747    -465.205     689.939
  H      421.150    -465.923     691.493
  P      414.473    -471.236     694.049
  C      415.523    -470.933     691.677
  O      414.362    -471.193     692.453
  O      413.231    -472.133     694.497
  O      415.766    -471.776     694.561
  H      413.535    -473.030     694.737
  H      415.267    -470.941     690.638
  H      416.257    -471.688     691.869
  H      415.920    -469.974     691.939

 6  7  8  9  10  11  12  13  14  15  25  28  32  33  34  35 0
 6-311+G(2d,p)
 ****
 36  37  40 0
 6-311+G(2d,p)
 ****
 1  2  3  4  5  16  17  18  19  20  21  22  23  24 0
 3-21G
 ****
 26  27  29  30  31  38  39 41  42  43  44  45  46  47  48 0
 3-21G
 ****


