%nproc=1
%NoSave
%Mem=1900MB
#P OB98/GEN NMR

erre ene a

0 1
  C     -203.098    -487.737    -316.737
  O     -203.375    -489.124    -316.620
  H     -204.037    -487.186    -316.657
  H     -202.639    -487.526    -317.707
  H     -202.431    -487.420    -315.930
  P     -202.123    -490.120    -316.744
  C     -203.925    -491.880    -317.366
  O     -202.765    -491.588    -316.592
  C     -204.506    -493.238    -316.963
  O     -203.547    -494.288    -317.211
  C     -204.884    -493.338    -315.487
  O     -206.179    -492.792    -315.277
  C     -204.893    -494.850    -315.303
  O     -206.134    -495.400    -315.792
  C     -203.728    -495.310    -316.195
  N     -200.419    -498.828    -314.459
  C     -201.671    -498.944    -314.932
  N     -202.517    -497.963    -315.324
  C     -201.933    -496.753    -315.199
  C     -200.654    -496.486    -314.729
  C     -199.876    -497.592    -314.350
  N     -198.587    -497.473    -313.859
  N     -200.401    -495.125    -314.735
  C     -201.496    -494.595    -315.259
  N     -202.463    -495.527    -315.522
  O     -200.958    -489.812    -315.858
  O     -201.819    -490.032    -318.315
  H     -206.144    -496.341    -315.529
  H     -202.653    -490.023    -318.822
  H     -202.058    -499.953    -315.012
  H     -201.618    -493.533    -315.486
  H     -203.964    -496.250    -316.724
  H     -204.810    -495.144    -314.253
  H     -204.126    -492.903    -314.842
  H     -205.372    -493.434    -317.604
  H     -203.669    -491.883    -318.435
  H     -198.180    -498.287    -313.440
  H     -198.242    -496.536    -313.662
  H     -204.650    -491.077    -317.191
  P     -206.442    -491.740    -314.091
  C     -208.568    -493.097    -313.610
  O     -208.028    -491.805    -313.819
  O     -205.877    -490.380    -314.328
  O     -205.836    -492.449    -312.795
  H     -205.701    -491.782    -312.084
  H     -209.622    -493.020    -313.440
  H     -208.101    -493.545    -312.758
  H     -208.389    -493.702    -314.474

 6  7  8  9  10  11  12  13  14  15  25  28  32  33  34  35 0
 6-311+G(2d,p)
 ****
 36  39  40 0
 6-311+G(2d,p)
 ****
 1  2  3  4  5  16  17  18  19  20  21  22  23  24 0
 3-21G
 ****
 26  27  29  30  31  37  38  41  42  43  44  45  46  47 0
 3-21G
 ****
 48 0
 3-21G
 ****


