%nproc=1
%NoSave
%Mem=1900MB
#P OB98/GEN NMR

erre ene a

0 1
  C     -180.468    -272.440     472.097
  O     -179.575    -273.553     472.176
  P     -178.136    -273.464     471.486
  C     -176.324    -271.624     471.323
  O     -177.307    -272.252     472.136
  C     -175.317    -270.874     472.206
  O     -175.951    -269.788     472.927
  C     -174.710    -271.755     473.292
  O     -173.825    -272.771     472.868
  C     -174.175    -270.729     474.279
  O     -172.895    -270.244     473.887
  C     -175.241    -269.612     474.171
  N     -176.159    -269.597     475.310
  C     -175.720    -268.921     476.443
  O     -174.608    -268.398     476.533
  N     -176.590    -268.897     477.499
  C     -177.817    -269.499     477.541
  O     -178.544    -269.466     478.526
  C     -178.217    -270.216     476.325
  C     -177.383    -270.234     475.283
  O     -178.126    -273.512     469.994
  O     -177.375    -274.751     472.079
  H     -172.921    -270.100     472.917
  H     -176.858    -275.152     471.358
  H     -176.290    -268.408     478.329
  H     -179.180    -270.710     476.322
  H     -177.662    -270.756     474.369
  H     -174.756    -268.625     474.121
  H     -174.065    -271.158     475.283
  H     -175.539    -272.277     473.797
  H     -174.548    -270.437     471.569
  H     -176.802    -270.931     470.628
  H     -175.825    -272.380     470.713
  P     -173.916    -274.291     473.375
  C     -175.889    -275.931     473.746
  O     -175.356    -274.878     472.973
  O     -173.415    -274.582     474.748
  O     -172.958    -275.030     472.314
  H     -172.517    -275.776     472.770
  H     -176.855    -276.211     473.323
  H     -176.039    -275.618     474.782
  H     -175.227    -276.800     473.711
  H     -181.377    -272.675     472.610
  H     -180.683    -272.227     471.071
  H     -180.013    -271.585     472.551

 3  4  5  6  7  8  9  10  11  12  13  23  28  29  30  31  32 0
 6-311+G(2d,p)
 ****
 33  34 0
 6-311+G(2d,p)
 ****
 1  2  14  15  16  17  18  19  20  21  22  24  25  26  27 0
 3-21G
 ****
 35  36  37  38  39  40  41  42  43  44  45 0
 3-21G
 ****


