%nproc=1
%NoSave
%Mem=1900MB
#P OB98/GEN NMR

erre ene a

0 1
  C        3.406     314.465    -241.760
  O        3.085     314.584    -240.390
  H        2.925     315.281    -242.308
  H        3.033     313.514    -242.144
  H        4.489     314.530    -241.915
  P        3.932     313.689    -239.357
  C        3.661     315.511    -237.528
  O        3.497     314.144    -237.874
  C        2.837     315.848    -236.288
  O        1.475     316.153    -236.688
  C        2.768     314.699    -235.261
  O        2.820     315.257    -233.936
  C        1.395     314.092    -235.498
  O        0.881     313.421    -234.344
  C        0.589     315.323    -235.917
  N       -4.448     315.514    -236.062
  C       -3.556     316.084    -235.165
  N       -4.094     316.803    -234.150
  N       -2.257     315.955    -235.261
  C       -1.869     315.231    -236.344
  C       -2.654     314.615    -237.297
  C       -4.086     314.741    -237.161
  O       -4.928     314.245    -237.904
  N       -1.880     313.947    -238.219
  C       -0.639     314.164    -237.827
  N       -0.580     314.945    -236.694
  O        5.418     314.262    -239.509
  O        3.884     312.214    -239.603
  H        0.112     312.886    -234.637
  H        6.000     313.574    -239.871
  H       -5.444     315.635    -235.929
  H        0.253     313.774    -238.309
  H        0.235     315.899    -235.058
  H        1.453     313.363    -236.317
  H       -5.070     316.987    -234.048
  H        3.567     313.967    -235.379
  H       -3.451     317.263    -233.511
  H        3.249     316.759    -235.824
  H        3.319     316.125    -238.371
  H        4.721     315.709    -237.336
  P        4.178     315.029    -233.106
  C        4.428     317.553    -232.573
  O        4.334     316.234    -232.052
  O        5.320     315.313    -234.185
  O        4.302     313.655    -232.529
  H        5.757     314.481    -234.450
  H        4.527     318.249    -231.766
  H        3.545     317.779    -233.133
  H        5.283     317.624    -233.212

 6  7  8  9  10  11  12  13  14  15  26  29  33  34 0
 6-311+G(2d,p)
 ****
 36  38  39  40  41 0
 6-311+G(2d,p)
 ****
 1  2  3  4  5  16  17  18  19  20  21  22  23  24  25 0
 3-21G
 ****
 27  28  30  31  32  35  37  42  43  44  45  46  47 0
 3-21G
 ****
 48  49 0
 3-21G
 ****


