%nproc=1
%NoSave
%Mem=1900MB
#P OB98/GEN NMR

erre ene a

0 1
  C      -29.713      88.576     -62.185
  O      -29.706      87.191     -62.551
  P      -30.327      86.060     -61.595
  C      -28.212      84.675     -61.147
  O      -29.213      85.512     -60.575
  C      -27.542      83.746     -60.124
  O      -26.514      82.934     -60.752
  C      -26.877      84.460     -58.940
  O      -26.990      83.570     -57.828
  C      -25.432      84.560     -59.401
  O      -24.515      84.793     -58.341
  C      -25.266      83.209     -60.090
  N      -20.937      80.840     -61.457
  C      -21.911      80.497     -60.586
  N      -23.049      81.160     -60.304
  C      -23.161      82.266     -61.058
  C      -22.254      82.737     -61.992
  C      -21.085      81.975     -62.175
  N      -20.068      82.343     -63.026
  N      -22.692      83.924     -62.545
  C      -23.841      84.168     -61.945
  N      -24.169      83.193     -61.038
  O      -31.067      84.983     -62.322
  O      -31.335      86.863     -60.642
  H      -23.613      84.653     -58.681
  H      -32.178      86.375     -60.585
  H      -21.750      79.571     -60.039
  H      -24.460      85.039     -62.109
  H      -25.092      82.408     -59.361
  H      -25.337      85.391     -60.110
  H      -27.321      85.432     -58.712
  H      -28.309      83.049     -59.763
  H      -27.450      85.312     -61.611
  H      -19.230      81.781     -63.020
  H      -20.104      83.247     -63.472
  H      -28.670      84.074     -61.942
  P      -28.075      83.796     -56.673
  C      -26.480      84.745     -54.912
  O      -27.556      85.026     -55.789
  O      -28.430      82.573     -55.896
  O      -29.351      84.400     -57.431
  H      -30.144      84.288     -56.875
  H      -26.851      84.201     -54.040
  H      -26.035      85.687     -54.583
  H      -25.712      84.149     -55.414
  H      -29.253      89.152     -62.960
  H      -29.169      88.707     -61.273
  H      -30.722      88.904     -62.049

 3  4  5  6  7  8  9  10  11  12  22  25  29  30  31  32 0
 6-311+G(2d,p)
 ****
 33  36  37 0
 6-311+G(2d,p)
 ****
 1  2  13  14  15  16  17  18  19  20  21  23  24  26 0
 3-21G
 ****
 27  28  34  35  38  39  40  41  42  43  44  45  46  47  48 0
 3-21G
 ****


