%nproc=1
%NoSave
%Mem=1900MB
#P OB98/GEN NMR

erre ene a

0 1
  C      492.604    -414.940    -307.053
  O      493.208    -413.738    -306.621
  P      492.886    -412.315    -307.263
  C      492.638    -411.423    -309.692
  O      493.248    -412.376    -308.831
  C      493.591    -410.916    -310.789
  O      494.117    -412.035    -311.530
  C      492.819    -410.056    -311.798
  O      492.573    -408.690    -311.533
  C      493.479    -410.342    -313.147
  O      494.427    -409.339    -313.515
  C      494.178    -411.682    -312.918
  N      493.704    -413.756    -317.524
  C      494.596    -412.796    -317.088
  N      495.320    -412.184    -318.054
  N      494.746    -412.460    -315.835
  C      493.879    -413.091    -315.001
  C      492.963    -414.067    -315.308
  C      492.844    -414.462    -316.696
  O      492.002    -415.245    -317.131
  N      492.217    -414.424    -314.218
  C      492.647    -413.639    -313.257
  N      493.628    -412.778    -313.695
  O      493.300    -411.112    -306.484
  O      491.270    -412.337    -307.295
  H      494.659    -409.475    -314.455
  H      490.961    -411.421    -307.142
  H      493.580    -413.916    -318.514
  H      492.262    -413.622    -312.246
  H      495.243    -411.611    -313.176
  H      492.729    -410.369    -313.944
  H      495.128    -412.317    -319.037
  H      491.817    -410.495    -311.879
  H      495.857    -411.362    -317.796
  H      494.459    -410.410    -310.354
  H      492.287    -410.594    -309.072
  H      491.756    -411.868    -310.165
  P      491.707    -407.688    -312.428
  C      491.745    -406.946    -314.880
  O      492.520    -407.374    -313.769
  O      491.770    -406.294    -311.636
  O      490.287    -408.103    -312.634
  H      491.016    -405.734    -311.891
  H      492.331    -407.059    -315.789
  H      491.474    -405.896    -314.754
  H      490.828    -407.549    -314.971
  H      492.980    -415.757    -306.472
  H      492.831    -415.102    -308.086
  H      491.544    -414.871    -306.928

 3  4  5  6  7  8  9  10  11  12  23  26  30  31 0
 6-311+G(2d,p)
 ****
 33  35  36  37  38 0
 6-311+G(2d,p)
 ****
 1  2  13  14  15  16  17  18  19  20  21  22  24  25 0
 3-21G
 ****
 27  28  29  32  34  39  40  41  42  43  44  45  46  47  48  49 0
 3-21G
 ****


