%nproc=1
%NoSave
%Mem=1900MB
#P OB98/GEN NMR

erre ene a

0 1
  C     -263.410     745.963     165.571
  O     -263.187     744.601     165.908
  P     -263.466     743.493     164.781
  C     -261.757     742.027     166.056
  O     -263.018     742.098     165.426
  C     -261.636     740.768     166.909
  O     -261.910     739.593     166.115
  C     -260.266     740.541     167.524
  O     -260.071     741.285     168.712
  C     -260.344     739.048     167.855
  O     -261.091     738.851     169.062
  C     -261.123     738.508     166.652
  N     -258.457     734.402     165.151
  C     -259.148     734.657     166.285
  N     -259.814     735.783     166.613
  C     -259.703     736.715     165.649
  C     -259.005     736.595     164.457
  C     -258.370     735.377     164.209
  N     -257.687     735.107     163.044
  N     -259.120     737.760     163.727
  C     -259.880     738.554     164.451
  N     -260.266     737.961     165.617
  O     -262.322     743.788     163.699
  O     -264.833     743.540     164.175
  H     -260.490     739.061     169.806
  H     -262.596     743.447     162.817
  H     -259.162     733.865     167.017
  H     -260.176     739.559     164.157
  H     -261.834     737.708     166.945
  H     -259.363     738.593     168.005
  H     -259.462     740.710     166.787
  H     -262.410     740.826     167.708
  H     -261.609     742.911     166.681
  H     -257.411     734.144     162.862
  H     -257.784     735.752     162.264
  H     -260.965     742.031     165.279
  P     -258.759     742.224     168.763
  C     -260.155     743.535     170.532
  O     -258.894     743.044     170.132
  O     -259.053     743.319     167.634
  O     -257.481     741.497     168.544
  H     -258.216     743.688     167.288
  H     -260.135     743.781     171.593
  H     -260.934     742.793     170.363
  H     -260.400     744.453     169.960
  H     -263.184     746.581     166.415
  H     -264.435     746.099     165.294
  H     -262.780     746.235     164.750

 3  4  5  6  7  8  9  10  11  12  22  25  29  30  31  32 0
 6-311+G(2d,p)
 ****
 33  36  37 0
 6-311+G(2d,p)
 ****
 1  2  13  14  15  16  17  18  19  20  21  23  24  26 0
 3-21G
 ****
 27  28  34  35  38  39  40  41  42  43  44  45  46  47  48 0
 3-21G
 ****


