%nproc=1
%NoSave
%Mem=1900MB
#P OB98/GEN NMR

erre ene a

0 1
  C     -372.819    -750.289     448.703
  O     -373.710    -751.213     449.286
  H     -371.798    -750.540     449.026
  H     -373.037    -749.275     449.036
  H     -372.862    -750.345     447.614
  P     -375.287    -751.057     449.015
  C     -375.469    -753.459     448.129
  O     -375.891    -752.539     449.138
  C     -375.632    -754.902     448.612
  O     -374.537    -755.246     449.505
  C     -376.947    -755.172     449.370
  O     -377.557    -756.355     448.872
  C     -376.485    -755.379     450.806
  O     -377.406    -756.149     451.575
  C     -375.115    -756.011     450.580
  N     -374.294    -755.982     451.782
  C     -374.247    -757.167     452.529
  O     -374.880    -758.160     452.160
  N     -373.536    -757.183     453.703
  C     -372.954    -756.098     454.120
  N     -372.300    -756.172     455.305
  C     -373.004    -754.820     453.385
  C     -373.676    -754.836     452.227
  O     -375.637    -750.332     447.752
  O     -375.857    -750.333     450.326
  H     -378.186    -755.584     451.800
  H     -376.710    -749.892     450.101
  H     -372.509    -753.952     453.774
  H     -373.757    -753.947     451.606
  H     -375.205    -757.054     450.240
  H     -376.373    -754.411     451.302
  H     -377.659    -754.346     449.293
  H     -375.548    -755.569     447.738
  H     -372.298    -757.072     455.785
  H     -374.426    -753.248     447.890
  H     -371.830    -755.389     455.744
  H     -376.094    -753.301     447.245
  P     -379.077    -756.625     449.351
  C     -380.290    -756.341     447.079
  O     -379.884    -757.225     448.101
  O     -379.671    -755.145     449.529
  O     -379.169    -757.421     450.620
  H     -379.810    -754.961     450.480
  H     -380.813    -756.887     446.322
  H     -379.429    -755.872     446.650
  H     -380.936    -755.594     447.490

 6  7  8  9  10  11  12  13  14  15  16  26  30  31  32  33  35 0
 6-311+G(2d,p)
 ****
 37  38 0
 6-311+G(2d,p)
 ****
 1  2  3  4  5  17  18  19  20  21  22  23  24  25 0
 3-21G
 ****
 27  28  29  34  36  39  40  41  42  43  44  45  46 0
 3-21G
 ****


