%nproc=1
%NoSave
%Mem=1900MB
#P OB98/GEN NMR

erre ene a

0 1
  C      482.614    -559.499    -293.191
  O      481.735    -560.292    -293.965
  H      483.045    -558.729    -293.832
  H      483.418    -560.123    -292.798
  H      482.078    -559.015    -292.368
  P      480.743    -561.268    -293.162
  C      481.867    -563.499    -293.872
  O      480.725    -562.658    -293.965
  C      481.512    -564.927    -294.259
  O      480.823    -565.588    -293.173
  C      480.594    -565.038    -295.475
  O      481.330    -564.968    -296.693
  C      480.013    -566.430    -295.266
  O      480.988    -567.421    -295.652
  C      479.807    -566.461    -293.742
  N      475.829    -567.493    -290.766
  C      476.976    -568.234    -291.005
  N      477.071    -569.420    -290.365
  N      477.934    -567.850    -291.804
  C      477.695    -566.649    -292.392
  C      476.598    -565.832    -292.242
  C      475.556    -566.264    -291.345
  O      474.524    -565.640    -291.090
  N      476.710    -564.699    -293.002
  C      477.860    -564.845    -293.634
  N      478.497    -566.012    -293.300
  O      479.301    -560.635    -293.467
  O      480.995    -561.362    -291.698
  H      480.568    -568.292    -295.532
  H      479.008    -560.127    -292.686
  H      475.117    -567.843    -290.150
  H      478.276    -564.131    -294.330
  H      479.960    -567.458    -293.325
  H      479.121    -566.610    -295.870
  H      476.358    -569.786    -289.759
  H      479.789    -564.292    -295.447
  H      477.904    -569.974    -290.524
  H      482.448    -565.474    -294.432
  H      482.236    -563.480    -292.838
  H      482.648    -563.115    -294.538
  P      481.150    -563.669    -297.613
  C      481.088    -565.247    -299.668
  O      481.635    -564.072    -299.090
  O      482.311    -562.704    -297.086
  O      479.813    -563.011    -297.534
  H      481.921    -561.931    -296.625
  H      481.500    -565.389    -300.645
  H      480.025    -565.148    -299.740
  H      481.327    -566.091    -299.055

 6  7  8  9  10  11  12  13  14  15  26  29  33  34 0
 6-311+G(2d,p)
 ****
 36  38  39  40  41 0
 6-311+G(2d,p)
 ****
 1  2  3  4  5  16  17  18  19  20  21  22  23  24  25 0
 3-21G
 ****
 27  28  30  31  32  35  37  42  43  44  45  46  47 0
 3-21G
 ****
 48  49 0
 3-21G
 ****


