%nproc=1
%NoSave
%Mem=1900MB
#P OB98/GEN NMR

erre ene a

0 1
  C     -371.047    -197.928    -171.457
  O     -369.686    -198.261    -171.258
  H     -371.602    -198.842    -171.681
  H     -371.141    -197.242    -172.302
  H     -371.466    -197.469    -170.556
  P     -368.743    -197.095    -170.690
  C     -368.678    -198.282    -168.353
  O     -368.906    -197.090    -169.089
  C     -368.611    -197.973    -166.858
  O     -368.621    -199.187    -166.082
  C     -367.331    -197.278    -166.424
  O     -367.278    -195.928    -166.831
  C     -367.416    -197.455    -164.912
  O     -368.219    -196.434    -164.306
  C     -368.097    -198.841    -164.782
  N     -367.181    -199.841    -164.267
  C     -367.181    -199.993    -162.872
  O     -367.943    -199.319    -162.178
  N     -366.301    -200.879    -162.309
  C     -365.470    -201.531    -163.061
  N     -364.600    -202.368    -162.437
  C     -365.433    -201.395    -164.532
  C     -366.307    -200.541    -165.066
  O     -369.521    -195.771    -171.142
  O     -367.326    -197.157    -171.149
  H     -367.796    -195.579    -164.532
  H     -370.470    -195.782    -170.925
  H     -364.731    -201.974    -165.119
  H     -366.352    -200.379    -166.136
  H     -368.958    -198.779    -164.101
  H     -366.430    -197.400    -164.444
  H     -366.458    -197.837    -166.782
  H     -369.497    -197.381    -166.594
  H     -364.623    -202.388    -161.423
  H     -367.752    -198.769    -168.682
  H     -363.860    -202.864    -162.912
  H     -369.505    -198.969    -168.564
  P     -365.928    -195.076    -166.711
  C     -365.950    -195.199    -169.288
  O     -365.149    -195.245    -168.109
  O     -365.094    -195.359    -165.510
  O     -366.447    -193.561    -166.805
  H     -366.921    -193.342    -167.624
  H     -365.326    -195.322    -170.148
  H     -366.451    -194.255    -169.342
  H     -366.675    -195.986    -169.258

 6  7  8  9  10  11  12  13  14  15  16  26  30  31  32  33  35 0
 6-311+G(2d,p)
 ****
 37  38 0
 6-311+G(2d,p)
 ****
 1  2  3  4  5  17  18  19  20  21  22  23  24  25 0
 3-21G
 ****
 27  28  29  34  36  39  40  41  42  43  44  45  46 0
 3-21G
 ****


