%nproc=1
%NoSave
%Mem=1900MB
#P OB98/GEN NMR

erre ene a

0 1
  C      -95.609    -583.785    -161.290
  O      -95.276    -582.416    -161.026
  P      -95.863    -581.623    -159.761
  C      -94.075    -582.611    -158.191
  O      -94.685    -581.424    -158.683
  C      -93.686    -582.479    -156.714
  O      -93.425    -583.770    -156.132
  C      -92.438    -581.638    -156.454
  O      -92.739    -580.260    -156.540
  C      -92.027    -582.131    -155.070
  O      -92.806    -581.479    -154.055
  C      -92.386    -583.621    -155.146
  N      -89.695    -587.733    -153.718
  C      -90.806    -587.151    -153.203
  N      -91.460    -586.058    -153.637
  C      -90.876    -585.562    -154.741
  C      -89.733    -586.036    -155.376
  C      -89.132    -587.179    -154.816
  N      -87.994    -587.757    -155.333
  N      -89.414    -585.253    -156.461
  C      -90.351    -584.325    -156.491
  N      -91.259    -584.468    -155.476
  O      -97.118    -582.212    -159.194
  O      -96.133    -580.134    -160.293
  H      -92.535    -580.537    -154.045
  H      -96.855    -579.728    -159.784
  H      -91.218    -587.639    -152.320
  H      -90.423    -583.539    -157.229
  H      -92.802    -583.987    -154.196
  H      -90.976    -581.937    -154.850
  H      -91.660    -581.902    -157.178
  H      -94.551    -582.051    -156.181
  H      -93.172    -582.813    -158.786
  H      -87.601    -588.549    -154.856
  H      -87.540    -587.322    -156.128
  H      -94.771    -583.444    -158.321
  P      -91.776    -579.272    -157.350
  C      -93.145    -579.146    -159.518
  O      -92.698    -578.447    -158.370
  O      -90.567    -579.902    -157.953
  O      -91.373    -578.155    -156.268
  H      -90.484    -577.814    -156.479
  H      -92.352    -579.174    -160.261
  H      -94.002    -578.620    -159.930
  H      -93.452    -580.165    -159.258
  H      -95.108    -584.109    -162.179
  H      -96.667    -583.875    -161.423
  H      -95.300    -584.393    -160.465

 3  4  5  6  7  8  9  10  11  12  22  25  29  30  31  32 0
 6-311+G(2d,p)
 ****
 33  36  37 0
 6-311+G(2d,p)
 ****
 1  2  13  14  15  16  17  18  19  20  21  23  24  26 0
 3-21G
 ****
 27  28  34  35  38  39  40  41  42  43  44  45  46  47  48 0
 3-21G
 ****


