%nproc=1
%NoSave
%Mem=1900MB
#P OB98/GEN NMR

erre ene a

0 1
  C      181.767     -61.728     978.576
  O      182.235     -60.685     977.748
  H      182.610     -62.363     978.855
  H      181.035     -62.338     978.035
  H      181.314     -61.327     979.493
  P      181.226     -59.516     977.325
  C      178.790     -59.452     976.453
  O      179.989     -60.220     976.583
  C      177.678     -60.337     975.894
  O      177.486     -61.494     976.739
  C      176.319     -59.638     975.836
  O      176.254     -58.739     974.748
  C      175.385     -60.832     975.735
  O      175.325     -61.322     974.386
  C      176.083     -61.856     976.660
  N      175.483     -61.925     977.990
  C      174.560     -62.948     978.201
  O      174.236     -63.748     977.322
  N      174.006     -63.012     979.451
  C      174.195     -62.093     980.449
  O      173.608     -62.149     981.528
  C      175.158     -61.025     980.169
  C      175.743     -60.980     978.968
  O      181.832     -58.371     976.586
  O      180.585     -59.051     978.717
  H      174.715     -62.091     974.405
  H      180.982     -58.193     978.977
  H      173.330     -63.739     979.618
  H      175.337     -60.288     980.940
  H      176.451     -60.196     978.739
  H      176.047     -62.860     976.211
  H      174.372     -60.591     976.041
  H      176.122     -59.115     976.788
  H      177.977     -60.687     974.897
  H      178.987     -58.623     975.767
  H      178.526     -59.046     977.437
  P      174.880     -57.980     974.422
  C      172.501     -58.829     973.923
  O      173.891     -59.029     973.710
  O      175.024     -56.679     973.709
  O      174.217     -57.763     975.863
  H      174.102     -56.806     976.025
  H      171.948     -59.583     973.403
  H      172.219     -57.864     973.556
  H      172.288     -58.889     974.970

 6  7  8  9  10  11  12  13  14  15  16  26  31  32  33  34  35 0
 6-311+G(2d,p)
 ****
 36  37 0
 6-311+G(2d,p)
 ****
 1  2  3  4  5  17  18  19  20  21  22  23  24  25 0
 3-21G
 ****
 27  28  29  30  38  39  40  41  42  43  44  45 0
 3-21G
 ****


