%nproc=1
%NoSave
%Mem=1900MB
#P OB98/GEN NMR

erre ene a

0 1
  C      448.632    -163.968     163.795
  O      447.419    -164.664     163.944
  P      446.260    -164.087     164.891
  C      446.101    -163.361     167.360
  O      446.876    -164.045     166.372
  C      446.210    -164.088     168.706
  O      447.570    -164.057     169.203
  C      445.388    -163.435     169.819
  O      443.983    -163.469     169.690
  C      445.999    -164.099     171.042
  O      445.433    -165.404     171.249
  C      447.488    -164.211     170.636
  N      448.311    -163.214     171.339
  C      448.325    -163.307     172.725
  O      447.724    -164.160     173.360
  N      449.075    -162.356     173.373
  C      449.741    -161.320     172.786
  O      450.356    -160.474     173.434
  C      449.658    -161.252     171.321
  C      448.952    -162.187     170.658
  O      444.952    -164.781     164.791
  O      446.204    -162.529     164.509
  H      444.465    -165.302     171.310
  H      447.037    -162.042     164.650
  H      449.102    -162.401     174.385
  H      450.182    -160.448     170.817
  H      448.884    -162.170     169.581
  H      447.879    -165.196     170.885
  H      445.794    -163.521     171.961
  H      445.657    -162.375     169.860
  H      445.927    -165.145     168.551
  H      445.041    -163.352     167.037
  H      446.436    -162.325     167.431
  P      443.070    -162.149     169.796
  C      442.500    -160.385     171.613
  O      443.184    -161.589     171.290
  O      441.690    -162.244     169.205
  O      443.923    -161.090     168.970
  H      443.317    -160.450     168.550
  H      442.732    -160.113     172.657
  H      441.424    -160.521     171.521
  H      442.841    -159.571     170.963
  H      449.273    -164.507     163.129
  H      449.108    -163.873     164.749
  H      448.438    -162.995     163.394

 3  4  5  6  7  8  9  10  11  12  13  23  28  29  30  31  32 0
 6-311+G(2d,p)
 ****
 33  34 0
 6-311+G(2d,p)
 ****
 1  2  14  15  16  17  18  19  20  21  22  24  25  26  27 0
 3-21G
 ****
 35  36  37  38  39  40  41  42  43  44  45 0
 3-21G
 ****


