%nproc=1
%NoSave
%Mem=1900MB
#P OB98/GEN NMR

erre ene a

0 1
  C       49.753     453.114     274.547
  O       50.107     452.778     275.876
  H       50.492     452.687     273.865
  H       49.741     454.202     274.422
  H       48.769     452.706     274.300
  P       49.188     453.404     277.036
  C       50.887     455.375     277.214
  O       50.217     454.314     277.871
  C       51.556     456.281     278.239
  O       52.514     457.151     277.605
  C       50.594     457.208     278.979
  O       49.881     456.547     280.014
  C       51.570     458.231     279.528
  O       52.270     457.678     280.664
  C       52.520     458.416     278.326
  N       52.124     459.511     277.442
  C       53.056     460.546     277.264
  O       54.145     460.514     277.845
  N       52.720     461.610     276.459
  C       51.558     461.640     275.872
  N       51.275     462.725     275.104
  C       50.562     460.564     276.015
  C       50.904     459.550     276.806
  O       48.940     452.168     278.026
  O       47.944     454.101     276.591
  H       52.779     456.918     280.337
  H       48.482     452.481     278.846
  H       49.605     460.637     275.521
  H       50.216     458.723     276.962
  H       53.555     458.593     278.666
  H       51.083     459.146     279.870
  H       49.910     457.712     278.286
  H       52.111     455.641     278.942
  H       51.960     463.468     275.066
  H       50.151     455.945     276.628
  H       50.345     462.918     274.755
  H       51.644     454.976     276.531
  P       48.272     456.553     279.924
  C       48.343     458.851     281.136
  O       47.743     457.564     281.052
  O       47.875     455.114     280.504
  O       47.712     456.775     278.550
  H       47.132     454.727     280.019
  H       47.888     459.406     281.930
  H       48.203     459.371     280.211
  H       49.390     458.744     281.330

 6  7  8  9  10  11  12  13  14  15  16  26  30  31  32  33  35 0
 6-311+G(2d,p)
 ****
 37  38 0
 6-311+G(2d,p)
 ****
 1  2  3  4  5  17  18  19  20  21  22  23  24  25 0
 3-21G
 ****
 27  28  29  34  36  39  40  41  42  43  44  45  46 0
 3-21G
 ****


