%nproc=1
%NoSave
%Mem=1900MB
#P OB98/GEN NMR

erre ene a

0 1
  C     -405.239      71.449     222.740
  O     -406.024      70.814     221.744
  P     -405.314      70.444     220.351
  C     -406.223      72.555     219.057
  O     -405.111      71.838     219.582
  C     -405.757      73.879     218.449
  O     -405.166      74.706     219.472
  C     -404.690      73.738     217.369
  O     -405.238      73.308     216.133
  C     -404.099      75.144     217.354
  O     -404.937      76.027     216.580
  C     -404.150      75.527     218.847
  N     -402.865      75.387     219.522
  C     -402.449      76.465     220.302
  O     -403.116      77.494     220.428
  N     -401.231      76.331     220.912
  C     -400.380      75.275     220.775
  O     -399.278      75.228     221.313
  C     -400.849      74.178     219.917
  C     -402.053      74.282     219.339
  O     -406.522      69.728     219.583
  O     -404.084      69.612     220.521
  H     -407.392      70.048     219.898
  H     -404.874      75.725     215.656
  H     -400.923      77.087     221.497
  H     -400.194      73.327     219.776
  H     -402.414      73.490     218.698
  H     -404.490      76.567     218.959
  H     -403.097      75.176     216.913
  H     -403.919      73.021     217.698
  H     -406.637      74.402     218.050
  H     -406.932      72.755     219.865
  H     -406.720      71.933     218.303
  P     -404.273      72.438     215.178
  C     -403.231      74.473     213.909
  O     -403.044      73.390     214.798
  O     -405.151      72.361     213.844
  O     -403.902      71.109     215.756
  H     -405.578      73.212     213.619
  H     -402.415      75.187     214.051
  H     -404.185      74.978     214.095
  H     -403.206      74.108     212.880
  H     -405.841      71.633     223.605
  H     -404.866      72.378     222.362
  H     -404.418      70.816     223.005

 3  4  5  6  7  8  9  10  11  12  13  24  28  29  30  31  32 0
 6-311+G(2d,p)
 ****
 33  34 0
 6-311+G(2d,p)
 ****
 1  2  14  15  16  17  18  19  20  21  22  23  25  26  27 0
 3-21G
 ****
 35  36  37  38  39  40  41  42  43  44  45 0
 3-21G
 ****


