%nproc=1
%NoSave
%Mem=1900MB
#P OB98/GEN NMR

erre ene a

0 1
  C     -649.953      94.717     125.683
  O     -649.704      96.104     125.540
  P     -650.087      97.131     126.713
  C     -648.995      99.097     125.434
  O     -650.185      98.567     125.999
  C     -649.293      99.768     124.098
  O     -649.710      98.769     123.146
  C     -650.426     100.780     124.145
  O     -649.996     102.002     124.729
  C     -650.809     100.863     122.670
  O     -649.895     101.706     121.967
  C     -650.634      99.393     122.223
  N     -651.895      98.660     122.164
  C     -652.720      98.937     121.062
  O     -652.378      99.741     120.196
  N     -653.909      98.259     120.947
  C     -654.255      97.396     121.856
  N     -655.407      96.699     121.658
  C     -653.441      97.117     123.059
  C     -652.282      97.777     123.141
  O     -649.192      97.086     127.909
  O     -651.621      96.811     127.049
  H     -649.988     102.600     122.328
  H     -651.734      96.107     127.735
  H     -653.778      96.409     123.797
  H     -651.619      97.616     123.983
  H     -650.152      99.356     121.236
  H     -651.819     101.253     122.500
  H     -651.274     100.389     124.722
  H     -648.374     100.238     123.727
  H     -655.836      96.788     120.744
  H     -648.285      98.274     125.273
  H     -655.596      95.835     122.148
  H     -648.545      99.810     126.141
  P     -651.125     103.082     125.102
  C     -649.448     104.950     124.425
  O     -650.752     104.411     124.271
  O     -650.768     103.458     126.627
  O     -652.529     102.595     124.950
  H     -651.382     102.999     127.232
  H     -649.286     105.685     123.624
  H     -648.695     104.169     124.339
  H     -649.368     105.459     125.388
  H     -649.630      94.204     124.801
  H     -651.001      94.556     125.826
  H     -649.416      94.344     126.530

 3  4  5  6  7  8  9  10  11  12  13  23  27  28  29  30  32 0
 6-311+G(2d,p)
 ****
 34  35 0
 6-311+G(2d,p)
 ****
 1  2  14  15  16  17  18  19  20  21  22  24  25  26 0
 3-21G
 ****
 31  33  36  37  38  39  40  41  42  43  44  45  46 0
 3-21G
 ****


