%nproc=1
%NoSave
%Mem=1900MB
#P OB98/GEN NMR

erre ene a

0 1
  C      -49.073    -265.797     -35.438
  O      -50.249    -266.413     -34.957
  H      -48.937    -264.849     -34.914
  H      -49.159    -265.596     -36.508
  H      -48.204    -266.433     -35.246
  P      -50.718    -267.800     -35.611
  C      -51.737    -268.540     -37.864
  O      -51.384    -267.442     -37.028
  C      -52.437    -268.032     -39.131
  O      -53.626    -267.313     -38.723
  C      -51.552    -267.077     -39.947
  O      -51.437    -267.460     -41.317
  C      -52.142    -265.704     -39.637
  O      -51.928    -264.737     -40.639
  C      -53.613    -266.016     -39.345
  N      -54.266    -265.025     -38.492
  C      -54.732    -263.862     -39.101
  O      -54.645    -263.611     -40.298
  N      -55.332    -262.955     -38.264
  C      -55.491    -263.088     -36.916
  O      -56.041    -262.242     -36.220
  C      -54.955    -264.325     -36.327
  C      -54.376    -265.222     -37.126
  O      -51.549    -268.678     -34.736
  O      -49.347    -268.514     -36.028
  H      -52.405    -263.924     -40.362
  H      -49.153    -269.238     -35.402
  H      -55.685    -262.117     -38.693
  H      -55.054    -264.456     -35.259
  H      -53.968    -266.144     -36.727
  H      -54.182    -266.077     -40.274
  H      -51.669    -265.328     -38.718
  H      -50.516    -267.108     -39.591
  H      -52.759    -268.894     -39.725
  H      -52.409    -269.193     -37.296
  H      -50.837    -269.100     -38.136
  P      -50.078    -267.873     -42.044
  C      -48.066    -266.576     -43.133
  O      -49.214    -266.553     -42.292
  O      -50.211    -268.816     -43.190
  O      -49.246    -268.632     -40.887
  H      -48.706    -269.310     -41.340
  H      -47.630    -265.599     -43.169
  H      -48.353    -266.875     -44.120
  H      -47.352    -267.271     -42.743

 6  7  8  9  10  11  12  13  14  15  16  26  31  32  33  34  35 0
 6-311+G(2d,p)
 ****
 36  37 0
 6-311+G(2d,p)
 ****
 1  2  3  4  5  17  18  19  20  21  22  23  24  25 0
 3-21G
 ****
 27  28  29  30  38  39  40  41  42  43  44  45 0
 3-21G
 ****


