%nproc=1
%NoSave
%Mem=1900MB
#P OB98/GEN NMR

erre ene a

0 1
  C     -397.907     -27.453     -46.955
  O     -396.872     -28.399     -46.683
  P     -397.204     -29.951     -46.915
  C     -394.794     -30.792     -47.412
  O     -395.905     -30.823     -46.532
  C     -393.757     -31.859     -47.037
  O     -392.978     -31.436     -45.881
  C     -394.366     -33.218     -46.688
  O     -393.434     -34.239     -47.047
  C     -394.468     -33.164     -45.176
  O     -394.607     -34.464     -44.602
  C     -393.167     -32.429     -44.847
  N     -392.449     -33.218     -39.913
  C     -392.360     -34.097     -40.976
  N     -391.995     -35.362     -40.687
  N     -392.607     -33.758     -42.213
  C     -392.929     -32.449     -42.356
  C     -393.059     -31.483     -41.385
  C     -392.796     -31.879     -40.011
  O     -392.875     -31.145     -39.028
  N     -393.424     -30.276     -41.926
  C     -393.525     -30.512     -43.213
  N     -393.201     -31.802     -43.536
  O     -397.264     -30.067     -48.510
  O     -398.483     -30.401     -46.286
  H     -393.914     -35.039     -44.998
  H     -398.184     -30.194     -48.802
  H     -392.255     -33.532     -38.973
  H     -393.829     -29.794     -43.965
  H     -392.296     -33.104     -44.859
  H     -395.341     -32.564     -44.883
  H     -391.736     -35.676     -39.758
  H     -395.330     -33.425     -47.168
  H     -391.880     -36.015     -41.451
  H     -393.054     -31.974     -47.873
  H     -394.323     -29.808     -47.389
  H     -395.153     -30.932     -48.437
  P     -393.695     -35.014     -48.431
  C     -391.272     -34.597     -49.283
  O     -392.261     -35.540     -48.923
  O     -394.034     -33.836     -49.460
  O     -394.772     -36.046     -48.379
  H     -394.579     -34.176     -50.197
  H     -390.542     -34.525     -48.477
  H     -391.703     -33.604     -49.475
  H     -390.771     -34.940     -50.192
  H     -397.548     -26.465     -46.758
  H     -398.750     -27.657     -46.329
  H     -398.198     -27.528     -47.982

 3  4  5  6  7  8  9  10  11  12  23  26  30  31 0
 6-311+G(2d,p)
 ****
 33  35  36  37  38 0
 6-311+G(2d,p)
 ****
 1  2  13  14  15  16  17  18  19  20  21  22  24  25 0
 3-21G
 ****
 27  28  29  32  34  39  40  41  42  43  44  45  46  47  48  49 0
 3-21G
 ****


