%nproc=1
%NoSave
%Mem=1900MB
#P OB98/GEN NMR

erre ene a

0 1
  C     -123.708     -74.006     -37.252
  O     -124.690     -74.051     -36.239
  H     -122.783     -74.438     -36.863
  H     -123.516     -72.969     -37.536
  H     -124.018     -74.580     -38.129
  P     -126.216     -73.751     -36.625
  C     -126.999     -76.159     -36.141
  O     -126.841     -75.145     -37.120
  C     -127.228     -77.523     -36.800
  O     -126.078     -77.838     -37.638
  C     -127.399     -78.679     -35.802
  O     -128.271     -79.641     -36.408
  C     -125.987     -79.224     -35.718
  O     -125.965     -80.525     -35.174
  C     -125.542     -79.094     -37.178
  N     -124.092     -79.162     -37.329
  C     -123.503     -80.403     -37.124
  O     -124.139     -81.406     -36.799
  N     -122.143     -80.454     -37.260
  C     -121.328     -79.393     -37.515
  O     -120.109     -79.489     -37.595
  C     -122.000     -78.093     -37.678
  C     -123.331     -78.038     -37.584
  O     -126.436     -72.604     -37.553
  O     -126.943     -73.527     -35.216
  H     -125.042     -80.844     -35.094
  H     -127.688     -72.905     -35.319
  H     -121.701     -81.351     -37.124
  H     -121.381     -77.228     -37.872
  H     -123.856     -77.098     -37.700
  H     -125.984     -79.893     -37.790
  H     -125.366     -78.592     -35.075
  H     -127.794     -78.357     -34.836
  H     -128.095     -77.448     -37.468
  H     -127.864     -75.898     -35.521
  H     -126.107     -76.199     -35.507
  P     -129.864     -79.578     -36.231
  C     -130.328     -78.697     -38.607
  O     -130.446     -78.447     -37.210
  O     -130.321     -79.456     -34.815
  O     -130.399     -80.940     -36.882
  H     -131.237     -81.202     -36.456
  H     -130.748     -77.878     -39.153
  H     -130.852     -79.597     -38.854
  H     -129.295     -78.804     -38.864

 6  7  8  9  10  11  12  13  14  15  16  26  31  32  33  34  35 0
 6-311+G(2d,p)
 ****
 36  37 0
 6-311+G(2d,p)
 ****
 1  2  3  4  5  17  18  19  20  21  22  23  24  25 0
 3-21G
 ****
 27  28  29  30  38  39  40  41  42  43  44  45 0
 3-21G
 ****


