%nproc=1
%NoSave
%Mem=1900MB
#P OB98/GEN NMR

erre ene a

0 1
  C      114.221    -185.097    -135.154
  O      112.995    -185.357    -135.819
  P      112.571    -186.890    -136.038
  C      112.806    -188.554    -138.029
  O      113.268    -187.369    -137.403
  C      113.674    -188.892    -139.245
  O      113.378    -187.945    -140.304
  C      115.184    -188.832    -138.992
  O      115.790    -189.821    -139.832
  C      115.558    -187.448    -139.485
  O      116.943    -187.330    -139.798
  C      114.620    -187.309    -140.676
  N      116.799    -182.900    -141.864
  C      117.375    -184.094    -141.472
  N      118.725    -184.131    -141.450
  N      116.689    -185.158    -141.130
  C      115.351    -184.974    -141.216
  C      114.663    -183.831    -141.555
  C      115.432    -182.677    -141.962
  O      114.964    -181.629    -142.401
  N      113.310    -184.008    -141.440
  C      113.177    -185.278    -141.111
  N      114.386    -185.916    -141.012
  O      111.024    -186.780    -136.422
  O      112.812    -187.803    -134.877
  H      117.139    -187.951    -140.528
  H      110.457    -186.887    -135.633
  H      117.379    -182.122    -142.131
  H      112.244    -185.787    -140.944
  H      115.003    -187.807    -141.575
  H      115.326    -186.705    -138.711
  H      119.315    -183.360    -141.728
  H      115.462    -189.000    -137.946
  H      119.173    -185.004    -141.199
  H      113.387    -189.886    -139.605
  H      111.776    -188.398    -138.370
  H      112.809    -189.377    -137.308
  P      117.345    -190.143    -139.612
  C      119.563    -189.568    -140.817
  O      118.166    -189.362    -140.742
  O      117.458    -191.677    -140.070
  O      117.827    -189.972    -138.209
  H      118.148    -192.125    -139.547
  H      119.901    -189.315    -141.825
  H      119.832    -190.607    -140.607
  H      120.067    -188.910    -140.102
  H      114.370    -184.040    -135.081
  H      115.026    -185.533    -135.707
  H      114.191    -185.522    -134.172

 3  4  5  6  7  8  9  10  11  12  23  26  30  31 0
 6-311+G(2d,p)
 ****
 33  35  36  37  38 0
 6-311+G(2d,p)
 ****
 1  2  13  14  15  16  17  18  19  20  21  22  24  25 0
 3-21G
 ****
 27  28  29  32  34  39  40  41  42  43  44  45  46  47  48  49 0
 3-21G
 ****


