%nproc=1
%NoSave
%Mem=1900MB
#P OB98/GEN NMR

erre ene a

0 1
  C      555.576    1498.460    -432.340
  O      554.251    1499.011    -432.394
  P      554.019    1500.334    -431.512
  C      552.987    1501.652    -433.506
  O      554.014    1501.594    -432.532
  C      552.900    1503.045    -434.135
  O      552.385    1504.017    -433.168
  C      554.246    1503.587    -434.640
  O      553.990    1504.368    -435.821
  C      554.666    1504.479    -433.480
  O      555.714    1505.397    -433.837
  C      553.314    1505.102    -433.140
  N      554.079    1509.537    -430.706
  C      554.174    1509.180    -432.010
  N      553.970    1507.984    -432.587
  C      553.602    1507.072    -431.651
  C      553.448    1507.296    -430.275
  C      553.710    1508.588    -429.803
  N      553.614    1508.939    -428.471
  N      553.091    1506.104    -429.646
  C      553.098    1505.198    -430.604
  N      553.301    1505.750    -431.828
  O      555.397    1500.493    -430.729
  O      552.847    1500.247    -430.621
  H      555.972    1505.874    -433.045
  H      555.300    1500.155    -429.822
  H      554.456    1509.981    -432.688
  H      552.950    1504.145    -430.482
  H      553.005    1505.862    -433.868
  H      555.058    1503.873    -432.673
  H      554.984    1502.800    -434.884
  H      552.176    1502.991    -434.978
  H      552.027    1501.396    -433.057
  H      553.820    1509.900    -428.240
  H      553.370    1508.257    -427.796
  H      553.163    1500.888    -434.273
  P      554.516    1503.806    -437.220
  C      552.310    1502.804    -438.061
  O      553.604    1502.530    -437.534
  O      555.906    1503.106    -436.796
  O      554.680    1504.843    -438.308
  H      555.753    1502.530    -436.055
  H      551.831    1501.857    -438.318
  H      552.406    1503.397    -438.999
  H      551.706    1503.337    -437.330
  H      555.625    1497.587    -432.957
  H      555.812    1498.196    -431.330
  H      556.279    1499.186    -432.692

 3  4  5  6  7  8  9  10  11  12  22  25  29  30  31  32 0
 6-311+G(2d,p)
 ****
 33  36  37 0
 6-311+G(2d,p)
 ****
 1  2  13  14  15  16  17  18  19  20  21  23  24  26 0
 3-21G
 ****
 27  28  34  35  38  39  40  41  42  43  44  45  46  47  48 0
 3-21G
 ****


