%nproc=1
%NoSave
%Mem=1900MB
#P OB98/GEN NMR

erre ene a

0 1
  C       19.992      41.470     167.205
  O       19.722      42.823     167.520
  H       20.113      40.912     168.136
  H       20.916      41.397     166.626
  H       19.160      41.043     166.641
  P       19.487      43.813     166.280
  C       21.024      44.690     164.390
  O       20.925      43.915     165.578
  C       22.443      44.634     163.832
  O       22.878      43.270     163.690
  C       22.601      45.265     162.455
  O       22.713      46.675     162.554
  C       23.904      44.627     161.999
  O       25.019      45.311     162.604
  C       23.796      43.200     162.566
  N       25.158      39.513     159.267
  C       25.883      40.445     159.919
  N       25.450      41.420     160.746
  C       24.115      41.377     160.876
  C       23.244      40.483     160.273
  C       23.816      39.508     159.441
  N       23.072      38.550     158.785
  N       21.941      40.747     160.639
  C       22.030      41.748     161.491
  N       23.320      42.190     161.640
  O       18.813      45.102     166.599
  O       18.684      42.857     165.276
  H       24.897      45.273     163.571
  H       19.040      41.952     165.308
  H       26.956      40.403     159.757
  H       21.198      42.178     162.036
  H       24.758      42.842     162.950
  H       24.042      44.690     160.918
  H       21.797      44.958     161.779
  H       23.109      45.113     164.561
  H       20.742      45.729     164.589
  H       23.539      38.002     158.079
  H       22.067      38.626     158.817
  H       20.317      44.273     163.667
  P       21.775      47.633     161.675
  C       21.583      48.010     159.139
  O       22.459      47.735     160.226
  O       21.450      48.944     162.300
  O       20.464      46.765     161.396
  H       19.669      47.331     161.428
  H       22.146      48.055     158.230
  H       21.095      48.948     159.303
  H       20.850      47.234     159.067

 6  7  8  9  10  11  12  13  14  15  25  28  32  33  34  35 0
 6-311+G(2d,p)
 ****
 36  39  40 0
 6-311+G(2d,p)
 ****
 1  2  3  4  5  16  17  18  19  20  21  22  23  24 0
 3-21G
 ****
 26  27  29  30  31  37  38  41  42  43  44  45  46  47 0
 3-21G
 ****
 48 0
 3-21G
 ****


