%nproc=1
%NoSave
%Mem=1900MB
#P OB98/GEN NMR

erre ene a

0 1
  C      -21.665      52.136     293.337
  O      -21.382      52.077     291.952
  H      -22.726      51.920     293.486
  H      -21.448      53.134     293.728
  H      -21.073      51.387     293.872
  P      -19.873      52.401     291.514
  C      -19.218      50.133     290.479
  O      -19.625      51.473     290.225
  C      -19.466      49.257     289.250
  O      -20.895      49.056     289.108
  C      -18.952      49.876     287.948
  O      -18.413      48.847     287.119
  C      -20.204      50.444     287.303
  O      -20.088      50.547     285.886
  C      -21.272      49.459     287.780
  N      -25.704      49.765     285.270
  C      -24.620      48.981     285.096
  N      -23.482      48.953     285.824
  C      -23.554      49.822     286.851
  C      -24.590      50.688     287.151
  C      -25.707      50.644     286.300
  N      -26.806      51.461     286.455
  N      -24.270      51.453     288.255
  C      -23.069      51.046     288.622
  N      -22.589      50.070     287.792
  O      -18.847      52.285     292.591
  O      -20.028      53.854     290.866
  H      -19.932      49.650     285.525
  H      -20.813      53.908     290.290
  H      -24.667      48.287     284.259
  H      -22.505      51.431     289.466
  H      -21.332      48.566     287.146
  H      -20.400      51.447     287.700
  H      -18.198      50.647     288.119
  H      -19.021      48.271     289.425
  H      -19.769      49.727     291.334
  H      -27.572      51.352     285.808
  H      -26.834      52.109     287.229
  H      -18.152      50.146     290.726
  P      -17.461      49.270     285.899
  C      -15.247      48.338     286.842
  O      -16.236      48.235     285.822
  O      -17.090      50.711     285.829
  O      -18.338      48.849     284.620
  H      -18.209      49.512     283.917
  H      -14.490      47.599     286.680
  H      -15.702      48.179     287.797
  H      -14.806      49.313     286.814

 6  7  8  9  10  11  12  13  14  15  25  28  32  33  34  35 0
 6-311+G(2d,p)
 ****
 36  39  40 0
 6-311+G(2d,p)
 ****
 1  2  3  4  5  16  17  18  19  20  21  22  23  24 0
 3-21G
 ****
 26  27  29  30  31  37  38  41  42  43  44  45  46  47 0
 3-21G
 ****
 48 0
 3-21G
 ****


