%nproc=1
%NoSave
%Mem=1900MB
#P OB98/GEN NMR

erre ene a

0 1
  C     -387.597     240.381    -140.460
  O     -388.132     241.592    -139.966
  H     -388.200     239.535    -140.119
  H     -387.618     240.407    -141.553
  H     -386.562     240.260    -140.129
  P     -388.184     241.764    -138.372
  C     -385.633     242.218    -138.571
  O     -386.677     241.564    -137.861
  C     -384.917     243.194    -137.646
  O     -385.822     244.236    -137.222
  C     -384.381     242.565    -136.365
  O     -383.144     241.905    -136.566
  C     -384.210     243.801    -135.499
  O     -383.020     244.508    -135.893
  C     -385.461     244.615    -135.866
  N     -388.514     246.657    -132.306
  C     -387.456     247.155    -132.980
  N     -386.691     246.543    -133.908
  C     -387.116     245.290    -134.122
  C     -388.174     244.644    -133.505
  C     -388.899     245.385    -132.558
  N     -389.970     244.875    -131.859
  N     -388.283     243.342    -133.960
  C     -387.327     243.221    -134.858
  N     -386.588     244.367    -134.985
  O     -388.918     240.431    -137.874
  O     -388.853     243.003    -137.876
  H     -382.296     243.852    -135.903
  H     -389.290     240.567    -136.982
  H     -387.185     248.181    -132.738
  H     -387.131     242.330    -135.441
  H     -385.273     245.694    -135.864
  H     -384.111     243.569    -134.438
  H     -385.120     241.901    -135.902
  H     -384.106     243.669    -138.217
  H     -386.062     242.767    -139.417
  H     -390.300     245.422    -131.077
  H     -390.167     243.888    -131.932
  H     -384.933     241.467    -138.952
  P     -382.832     240.622    -135.652
  C     -384.144     239.162    -137.359
  O     -383.974     239.551    -135.998
  O     -383.221     241.121    -134.184
  O     -381.428     240.124    -135.733
  H     -382.720     240.631    -133.505
  H     -384.938     238.448    -137.429
  H     -383.237     238.724    -137.721
  H     -384.385     240.022    -137.948

 6  7  8  9  10  11  12  13  14  15  25  28  32  33  34  35 0
 6-311+G(2d,p)
 ****
 36  39  40 0
 6-311+G(2d,p)
 ****
 1  2  3  4  5  16  17  18  19  20  21  22  23  24 0
 3-21G
 ****
 26  27  29  30  31  37  38  41  42  43  44  45  46  47 0
 3-21G
 ****
 48 0
 3-21G
 ****


