%nproc=1
%NoSave
%Mem=1900MB
#P OB98/GEN NMR

erre ene a

0 1
  C      -96.742      38.213       2.952
  O      -97.930      37.738       2.313
  P      -98.095      38.078       0.755
  C      -98.843      40.111      -0.677
  O      -98.633      39.583       0.625
  C      -99.632      41.418      -0.593
  O     -101.017      41.186      -0.257
  C      -99.113      42.370       0.478
  O      -97.912      42.999       0.063
  C     -100.304      43.311       0.626
  O     -100.316      44.279      -0.436
  C     -101.493      42.350       0.463
  N     -105.753      42.273       3.297
  C     -105.494      42.772       2.068
  N     -104.332      42.754       1.383
  C     -103.374      42.132       2.090
  C     -103.489      41.571       3.351
  C     -104.749      41.661       3.967
  N     -105.007      41.167       5.225
  N     -102.287      41.024       3.752
  C     -101.456      41.272       2.761
  N     -102.068      41.929       1.728
  O      -99.348      37.186       0.313
  O      -96.882      37.765      -0.058
  H      -99.631      44.947      -0.229
  H      -99.050      36.445      -0.247
  H     -106.333      43.250       1.568
  H     -100.408      40.998       2.745
  H     -102.304      42.790      -0.128
  H     -100.301      43.862       1.571
  H      -98.944      41.827       1.416
  H      -99.588      41.907      -1.575
  H      -99.385      39.392      -1.295
  H     -105.915      41.343       5.626
  H     -104.245      40.787       5.768
  H      -97.870      40.266      -1.155
  P      -96.596      42.750       0.946
  C      -96.028      43.299       3.390
  O      -96.884      43.574       2.296
  O      -95.527      43.670       0.196
  O      -96.219      41.320       1.126
  H      -95.891      44.550      -0.014
  H      -96.310      43.946       4.224
  H      -94.989      43.501       3.118
  H      -96.138      42.256       3.699
  H      -96.751      37.923       3.982
  H      -96.701      39.280       2.882
  H      -95.885      37.791       2.470

 3  4  5  6  7  8  9  10  11  12  22  25  29  30  31  32 0
 6-311+G(2d,p)
 ****
 33  36  37 0
 6-311+G(2d,p)
 ****
 1  2  13  14  15  16  17  18  19  20  21  23  24  26 0
 3-21G
 ****
 27  28  34  35  38  39  40  41  42  43  44  45  46  47  48 0
 3-21G
 ****


