%nproc=1
%NoSave
%Mem=1900MB
#P OB98/GEN NMR

erre ene a

0 1
  C      162.512      88.068      21.944
  O      162.389      86.666      22.078
  H      163.439      88.289      21.407
  H      162.555      88.534      22.932
  H      161.668      88.472      21.378
  P      161.014      86.113      22.686
  C      160.043      86.099      25.127
  O      161.187      86.056      24.283
  C      160.428      85.692      26.547
  O      160.799      84.299      26.609
  C      161.648      86.418      27.088
  O      161.392      87.774      27.382
  C      161.956      85.567      28.311
  O      161.083      85.893      29.402
  C      161.653      84.144      27.776
  N      162.863      83.396      27.465
  C      163.374      82.606      28.502
  O      162.800      82.564      29.592
  N      164.537      81.908      28.286
  C      165.123      81.971      27.131
  N      166.276      81.263      26.986
  C      164.604      82.769      26.003
  C      163.487      83.454      26.239
  O      161.044      84.569      22.272
  O      159.786      86.845      22.254
  H      161.413      86.735      29.775
  H      161.854      84.107      22.545
  H      165.122      82.786      25.055
  H      163.039      84.065      25.467
  H      161.076      83.570      28.514
  H      162.978      85.712      28.667
  H      162.488      86.318      26.390
  H      159.551      85.841      27.193
  H      166.612      80.744      27.786
  H      159.248      85.454      24.741
  H      166.836      81.264      26.143
  H      159.666      87.127      25.119
  P      162.506      88.892      27.103
  C      164.955      89.244      27.821
  O      163.730      88.565      28.089
  O      162.020      90.302      27.166
  O      163.100      88.472      25.675
  H      163.497      87.583      25.644
  H      165.691      88.948      28.538
  H      164.799      90.301      27.886
  H      165.294      88.993      26.838

 6  7  8  9  10  11  12  13  14  15  16  26  30  31  32  33  35 0
 6-311+G(2d,p)
 ****
 37  38 0
 6-311+G(2d,p)
 ****
 1  2  3  4  5  17  18  19  20  21  22  23  24  25 0
 3-21G
 ****
 27  28  29  34  36  39  40  41  42  43  44  45  46 0
 3-21G
 ****


