%nproc=1
%NoSave
%Mem=1900MB
#P OB98/GEN NMR

erre ene a

0 1
  C       22.875     -71.633    -115.195
  O       21.626     -71.321    -115.786
  P       20.483     -72.443    -115.781
  C       20.882     -72.911    -118.304
  O       19.941     -72.601    -117.284
  C       20.548     -72.168    -119.602
  O       21.614     -72.361    -120.562
  C       19.247     -72.643    -120.262
  O       18.607     -71.531    -120.910
  C       19.728     -73.582    -121.347
  O       18.762     -73.710    -122.395
  C       21.025     -72.894    -121.768
  N       22.413     -74.828    -126.230
  C       21.617     -73.733    -125.956
  N       21.051     -73.121    -127.023
  N       21.411     -73.271    -124.755
  C       22.035     -73.985    -123.788
  C       22.863     -75.083    -123.935
  C       23.072     -75.589    -125.272
  O       23.744     -76.571    -125.574
  N       23.341     -75.510    -122.722
  C       22.773     -74.709    -121.839
  N       21.948     -73.792    -122.434
  O       19.273     -71.719    -115.021
  O       20.860     -73.713    -115.098
  H       19.176     -74.262    -123.092
  H       19.190     -72.073    -114.116
  H       22.539     -75.156    -127.176
  H       22.913     -74.767    -120.765
  H       20.834     -72.048    -122.442
  H       19.916     -74.580    -120.931
  H       21.123     -73.470    -127.971
  H       18.539     -73.125    -119.575
  H       20.430     -72.347    -126.848
  H       20.502     -71.093    -119.382
  H       20.858     -73.988    -118.496
  H       21.890     -72.645    -117.964
  P       17.161     -71.120    -120.333
  C       15.811     -73.010    -121.518
  O       16.101     -71.628    -121.425
  O       17.143     -69.526    -120.496
  O       16.918     -71.557    -118.929
  H       16.527     -69.130    -119.847
  H       14.756     -73.169    -121.272
  H       16.431     -73.612    -120.841
  H       15.985     -73.339    -122.546
  H       23.529     -70.790    -115.276
  H       23.309     -72.471    -115.700
  H       22.731     -71.874    -114.163

 3  4  5  6  7  8  9  10  11  12  23  26  30  31 0
 6-311+G(2d,p)
 ****
 33  35  36  37  38 0
 6-311+G(2d,p)
 ****
 1  2  13  14  15  16  17  18  19  20  21  22  24  25 0
 3-21G
 ****
 27  28  29  32  34  39  40  41  42  43  44  45  46  47  48  49 0
 3-21G
 ****


