%nproc=1
%NoSave
%Mem=1900MB
#P OB98/GEN NMR

erre ene a

0 1
  C       30.359     -71.921      -6.626
  O       30.061     -73.002      -7.518
  P       29.532     -72.640      -8.990
  C       27.464     -71.397      -9.970
  O       28.022     -72.112      -8.878
  C       25.939     -71.551      -9.995
  O       25.542     -72.816     -10.568
  C       25.296     -71.516      -8.618
  O       25.113     -70.179      -8.163
  C       23.950     -72.165      -8.900
  O       23.056     -71.205      -9.499
  C       24.323     -73.250      -9.923
  N       22.094     -77.620      -8.431
  C       21.587     -76.480      -8.954
  N       22.243     -75.355      -9.311
  C       23.559     -75.480      -9.087
  C       24.222     -76.580      -8.556
  C       23.435     -77.689      -8.216
  N       23.956     -78.846      -7.686
  N       25.578     -76.333      -8.463
  C       25.735     -75.120      -8.946
  N       24.543     -74.562      -9.327
  O       29.367     -74.077      -9.677
  O       30.460     -71.763      -9.770
  H       23.041     -70.426      -8.911
  H       29.578     -74.017     -10.627
  H       20.512     -76.475      -9.118
  H       26.681     -74.606      -9.040
  H       23.554     -73.368     -10.700
  H       23.460     -72.534      -7.992
  H       25.868     -72.124      -7.901
  H       25.526     -70.747     -10.617
  H       27.892     -71.756     -10.910
  H       23.326     -79.611      -7.496
  H       24.952     -78.909      -7.548
  H       27.747     -70.341      -9.887
  P       26.132     -69.641      -7.046
  C       25.779     -69.176      -4.515
  O       25.445     -69.968      -5.638
  O       26.006     -68.052      -7.187
  O       27.541     -70.110      -7.217
  H       26.849     -67.623      -6.940
  H       25.021     -69.322      -3.741
  H       25.814     -68.113      -4.773
  H       26.750     -69.487      -4.119
  H       30.698     -72.314      -5.690
  H       29.478     -71.335      -6.468
  H       31.124     -71.307      -7.053

 3  4  5  6  7  8  9  10  11  12  22  25  29  30  31  32 0
 6-311+G(2d,p)
 ****
 33  36  37 0
 6-311+G(2d,p)
 ****
 1  2  13  14  15  16  17  18  19  20  21  23  24  26 0
 3-21G
 ****
 27  28  34  35  38  39  40  41  42  43  44  45  46  47  48 0
 3-21G
 ****


