%nproc=1
%NoSave
%Mem=1900MB
#P OB98/GEN NMR

erre ene a

0 1
  C       18.089     141.059     165.220
  O       19.166     141.927     164.855
  P       19.321     143.297     165.678
  C       21.895     143.624     165.433
  O       20.590     144.092     165.108
  C       22.926     144.224     164.478
  O       22.728     143.755     163.131
  C       22.847     145.737     164.385
  O       23.457     146.337     165.513
  C       23.569     146.019     163.071
  O       24.980     146.211     163.273
  C       23.302     144.737     162.250
  N       22.447     144.977     161.095
  C       23.110     145.214     159.886
  O       24.342     145.234     159.842
  N       22.354     145.449     158.763
  C       21.060     145.469     158.847
  N       20.364     145.712     157.700
  C       20.325     145.251     160.112
  C       21.073     145.016     161.189
  O       19.812     142.801     167.120
  O       18.061     144.094     165.766
  H       25.378     146.223     162.380
  H       19.466     143.394     167.814
  H       19.245     145.286     160.135
  H       20.621     144.843     162.159
  H       24.249     144.313     161.887
  H       23.189     146.926     162.594
  H       21.797     146.056     164.306
  H       23.931     143.921     164.810
  H       20.900     145.858     156.856
  H       21.930     142.533     165.379
  H       19.359     145.759     157.655
  H       22.116     143.892     166.474
  P       22.510     147.087     166.568
  C       23.895     146.806     168.715
  O       23.508     147.682     167.675
  O       21.846     145.853     167.353
  O       21.482     148.019     166.025
  H       21.164     146.176     167.968
  H       24.720     147.258     169.269
  H       24.224     145.844     168.309
  H       23.055     146.652     169.400
  H       18.104     140.190     164.596
  H       17.159     141.573     165.094
  H       18.199     140.765     166.243

 3  4  5  6  7  8  9  10  11  12  13  21  23  27  28  29  30  32 0
 6-311+G(2d,p)
 ****
 34  35 0
 6-311+G(2d,p)
 ****
 1  2  14  15  16  17  18  19  20  22  24  25  26 0
 3-21G
 ****
 31  33  36  37  38  39  40  41  42  43  44  45  46 0
 3-21G
 ****


