%nproc=1
%NoSave
%Mem=1900MB
#P OB98/GEN NMR

erre ene a

0 1
  C     -624.329    -123.366     -57.850
  O     -624.720    -123.068     -56.524
  H     -623.408    -123.958     -57.821
  H     -624.142    -122.445     -58.406
  H     -625.109    -123.949     -58.351
  P     -626.057    -122.194     -56.344
  C     -625.004    -119.913     -55.686
  O     -625.708    -121.062     -55.249
  C     -624.768    -118.958     -54.521
  O     -626.053    -118.611     -53.917
  C     -623.884    -119.542     -53.400
  O     -623.045    -118.504     -52.875
  C     -624.892    -119.940     -52.336
  O     -624.313    -120.013     -51.032
  C     -625.934    -118.835     -52.496
  N     -628.329    -119.455     -48.114
  C     -627.038    -119.037     -48.371
  N     -626.263    -118.740     -47.306
  N     -626.542    -118.923     -49.586
  C     -627.443    -119.223     -50.555
  C     -628.747    -119.658     -50.428
  C     -629.269    -119.809     -49.083
  O     -630.393    -120.192     -48.779
  N     -629.314    -119.896     -51.655
  C     -628.363    -119.600     -52.529
  N     -627.208    -119.185     -51.906
  O     -627.042    -123.187     -55.561
  O     -626.666    -121.675     -57.608
  H     -623.819    -119.185     -50.871
  H     -627.976    -122.997     -55.790
  H     -628.649    -119.543     -47.163
  H     -628.443    -119.679     -53.601
  H     -625.618    -117.889     -52.031
  H     -625.322    -120.925     -52.574
  H     -626.577    -118.776     -46.359
  H     -623.266    -120.382     -53.724
  H     -625.310    -118.423     -47.482
  H     -624.341    -118.018     -54.902
  H     -625.588    -119.403     -56.461
  H     -624.040    -120.221     -56.108
  P     -621.536    -118.423     -53.424
  C     -620.354    -119.405     -51.317
  O     -620.539    -118.271     -52.173
  O     -621.481    -116.983     -54.119
  O     -621.188    -119.509     -54.401
  H     -621.454    -117.082     -55.082
  H     -619.668    -119.154     -50.535
  H     -619.962    -120.222     -51.887
  H     -621.294    -119.687     -50.890

 6  7  8  9  10  11  12  13  14  15  26  29  33  34 0
 6-311+G(2d,p)
 ****
 36  38  39  40  41 0
 6-311+G(2d,p)
 ****
 1  2  3  4  5  16  17  18  19  20  21  22  23  24  25 0
 3-21G
 ****
 27  28  30  31  32  35  37  42  43  44  45  46  47 0
 3-21G
 ****
 48  49 0
 3-21G
 ****


