%nproc=1
%NoSave
%Mem=1900MB
#P OB98/GEN NMR

erre ene a

0 1
  C      578.885     511.110     449.945
  O      577.651     511.744     450.228
  H      578.688     510.093     449.607
  H      579.503     511.069     450.850
  H      579.415     511.652     449.159
  P      577.735     513.227     450.842
  C      575.918     512.386     452.515
  O      576.330     513.395     451.603
  C      574.407     512.193     452.417
  O      573.715     513.333     452.983
  C      573.886     512.065     450.990
  O      574.093     510.776     450.436
  C      572.410     512.359     451.213
  O      571.775     511.208     451.795
  C      572.489     513.524     452.226
  N      572.480     514.839     451.588
  C      571.323     515.609     451.739
  O      570.358     515.174     452.370
  N      571.261     516.845     451.139
  C      572.272     517.283     450.459
  N      572.155     518.506     449.872
  C      573.524     516.518     450.286
  C      573.555     515.319     450.871
  O      577.553     514.176     449.563
  O      578.941     513.524     451.668
  H      571.892     510.471     451.169
  H      577.468     515.116     449.858
  H      574.333     516.914     449.699
  H      574.443     514.700     450.782
  H      571.653     513.477     452.937
  H      571.876     512.588     450.287
  H      574.299     512.839     450.338
  H      574.138     511.314     453.020
  H      571.264     518.985     449.956
  H      576.193     512.698     453.523
  H      572.810     518.844     449.183
  H      576.416     511.442     452.282
  P      573.754     510.565     448.886
  C      572.622     508.308     449.485
  O      573.553     508.990     448.660
  O      575.154     510.862     448.167
  O      572.653     511.436     448.355
  H      575.023     511.346     447.332
  H      572.599     507.272     449.217
  H      571.649     508.732     449.351
  H      572.915     508.405     450.509

 6  7  8  9  10  11  12  13  14  15  16  26  30  31  32  33  35 0
 6-311+G(2d,p)
 ****
 37  38 0
 6-311+G(2d,p)
 ****
 1  2  3  4  5  17  18  19  20  21  22  23  24  25 0
 3-21G
 ****
 27  28  29  34  36  39  40  41  42  43  44  45  46 0
 3-21G
 ****


