%nproc=1
%NoSave
%Mem=1900MB
#P OB98/GEN NMR

erre ene a

0 1
  C     -198.938     184.859     -64.678
  O     -199.284     185.073     -63.327
  H     -197.937     184.410     -64.717
  H     -198.918     185.804     -65.222
  H     -199.653     184.173     -65.141
  P     -200.674     185.825     -63.043
  C     -201.237     184.351     -60.976
  O     -201.622     184.777     -62.275
  C     -201.603     182.874     -60.806
  O     -200.854     182.077     -61.751
  C     -201.250     182.309     -59.440
  O     -202.197     182.646     -58.441
  C     -201.245     180.817     -59.737
  O     -202.566     180.253     -59.665
  C     -200.700     180.761     -61.173
  N     -199.316     180.315     -61.205
  C     -199.116     178.941     -61.041
  O     -200.036     178.147     -60.870
  N     -197.810     178.526     -61.026
  C     -196.715     179.325     -61.118
  O     -195.570     178.889     -61.046
  C     -196.979     180.761     -61.279
  C     -198.242     181.193     -61.313
  O     -201.324     185.942     -64.499
  O     -200.543     187.158     -62.373
  H     -201.269     186.868     -64.813
  H     -202.885     180.432     -58.752
  H     -197.649     177.531     -60.904
  H     -196.127     181.430     -61.354
  H     -198.471     182.238     -61.420
  H     -201.295     180.076     -61.786
  H     -200.635     180.273     -59.026
  H     -200.240     182.611     -59.151
  H     -202.675     182.749     -61.016
  H     -201.775     184.931     -60.222
  H     -200.165     184.508     -60.848
  P     -201.631     183.089     -56.995
  C     -202.840     185.402     -56.666
  O     -201.653     184.691     -56.989
  O     -200.088     182.705     -57.159
  O     -202.339     182.427     -55.863
  H     -199.797     182.732     -58.095
  H     -202.651     186.454     -56.717
  H     -203.152     185.144     -55.676
  H     -203.611     185.144     -57.362

 6  7  8  9  10  11  12  13  14  15  16  27  31  32  33  34  35 0
 6-311+G(2d,p)
 ****
 36  37 0
 6-311+G(2d,p)
 ****
 1  2  3  4  5  17  18  19  20  21  22  23  24  25 0
 3-21G
 ****
 26  28  29  30  38  39  40  41  42  43  44  45 0
 3-21G
 ****


