%nproc=1
%NoSave
%Mem=1900MB
#P OB98/GEN NMR

erre ene a

0 1
  C     -118.445     597.945      63.757
  O     -118.541     596.689      64.442
  P     -119.706     595.698      63.964
  C     -120.614     595.390      66.376
  O     -120.103     594.762      65.206
  C     -119.722     595.084      67.587
  O     -118.599     595.972      67.670
  C     -120.455     595.211      68.918
  O     -121.228     594.046      69.153
  C     -119.299     595.368      69.893
  O     -118.746     594.090      70.272
  C     -118.271     596.170      69.074
  N     -115.674     599.874      71.365
  C     -115.486     598.497      71.401
  N     -114.434     598.054      72.136
  N     -116.238     597.643      70.779
  C     -117.253     598.233      70.077
  C     -117.517     599.581      69.941
  C     -116.668     600.515      70.648
  O     -116.770     601.736      70.621
  N     -118.584     599.796      69.105
  C     -119.036     598.580      68.841
  N     -118.222     597.595      69.364
  O     -118.960     594.705      62.953
  O     -120.848     596.401      63.305
  H     -119.462     593.492      70.535
  H     -119.260     594.878      62.037
  H     -115.049     600.484      71.873
  H     -119.915     598.358      68.262
  H     -117.256     595.794      69.222
  H     -119.606     595.859      70.818
  H     -113.803     598.660      72.646
  H     -121.085     596.115      68.921
  H     -114.280     597.057      72.174
  H     -119.348     594.057      67.456
  H     -121.629     595.044      66.571
  H     -120.681     596.467      66.198
  P     -122.583     594.207      70.007
  C     -122.412     592.126      71.548
  O     -123.052     592.751      70.445
  O     -123.657     594.639      68.898
  O     -122.508     595.219      71.099
  H     -124.207     595.369      69.231
  H     -123.113     591.459      72.043
  H     -122.048     592.863      72.270
  H     -121.556     591.535      71.184
  H     -117.635     598.513      64.165
  H     -119.358     598.489      63.879
  H     -118.270     597.771      62.716

 3  4  5  6  7  8  9  10  11  12  23  26  30  31 0
 6-311+G(2d,p)
 ****
 33  35  36  37  38 0
 6-311+G(2d,p)
 ****
 1  2  13  14  15  16  17  18  19  20  21  22  24  25 0
 3-21G
 ****
 27  28  29  32  34  39  40  41  42  43  44  45  46  47  48  49 0
 3-21G
 ****


