%nproc=1
%NoSave
%Mem=1900MB
#P OB98/GEN NMR

erre ene a

0 1
  C     -180.292     131.631     162.648
  O     -179.554     131.889     161.450
  P     -180.413     132.221     160.131
  C     -179.649     134.707     160.184
  O     -180.736     133.793     160.152
  C     -180.096     136.055     160.751
  O     -180.533     135.924     162.115
  C     -179.000     137.111     160.784
  O     -178.810     137.713     159.513
  C     -179.585     138.111     161.771
  O     -180.514     138.979     161.097
  C     -180.326     137.202     162.765
  N     -179.391     138.921     167.441
  C     -180.215     139.433     166.458
  N     -180.910     140.545     166.777
  N     -180.348     138.901     165.273
  C     -179.614     137.775     165.103
  C     -178.761     137.170     165.998
  C     -178.600     137.787     167.299
  O     -177.858     137.395     168.192
  N     -178.202     136.035     165.471
  C     -178.736     135.934     164.269
  N     -179.590     136.976     163.995
  O     -181.832     131.549     160.450
  O     -179.816     131.695     158.869
  H     -181.002     139.468     161.789
  H     -182.283     131.309     159.620
  H     -179.321     139.376     168.335
  H     -178.542     135.135     163.568
  H     -181.314     137.600     163.025
  H     -178.825     138.754     162.225
  H     -180.911     140.966     167.694
  H     -178.066     136.696     161.186
  H     -181.548     140.915     166.081
  H     -180.940     136.414     160.145
  H     -179.255     134.851     159.177
  H     -178.842     134.277     160.786
  P     -177.721     137.044     158.542
  C     -179.578     136.139     156.972
  O     -178.481     135.838     157.811
  O     -176.724     136.316     159.560
  O     -177.011     138.008     157.653
  H     -175.828     136.266     159.176
  H     -179.366     137.006     156.339
  H     -180.465     136.335     157.580
  H     -179.775     135.275     156.329
  H     -179.612     131.425     163.448
  H     -180.932     130.787     162.498
  H     -180.883     132.488     162.894

 3  4  5  6  7  8  9  10  11  12  23  26  30  31  33  0
 6-311+G(2d,p)
 ****
 35  36  37  38 0
 6-311+G(2d,p)
 ****
 1  2  13  14  15  16  17  18  19  20  21  22  24  25  27  28  29 0
 3-21G
 ****
 32  34  39  40  41  42  43  44  45  46  47  48  49 0
 3-21G
 ****


