%nproc=1
%NoSave
%Mem=1900MB
#P OB98/GEN NMR

erre ene a

0 1
  C     -465.972      53.361     277.393
  O     -466.359      54.565     278.028
  H     -464.891      53.243     277.493
  H     -466.225      53.398     276.330
  H     -466.468      52.509     277.868
  P     -467.914      54.950     277.934
  C     -469.183      56.645     276.437
  O     -468.107      55.723     276.541
  C     -469.713      56.691     275.006
  O     -468.733      57.267     274.118
  C     -470.084      55.329     274.429
  O     -471.389      54.949     274.828
  C     -469.981      55.606     272.934
  O     -471.162      56.278     272.448
  C     -468.760      56.531     272.863
  N     -465.525      54.821     269.383
  C     -466.768      55.393     269.236
  N     -467.240      55.508     267.970
  N     -467.500      55.813     270.235
  C     -466.934      55.585     271.443
  C     -465.706      55.024     271.723
  C     -464.888      54.616     270.602
  O     -463.741      54.177     270.664
  N     -465.475      54.984     273.075
  C     -466.575      55.485     273.607
  N     -467.487      55.861     272.658
  O     -468.078      56.111     279.025
  O     -468.868      53.833     278.191
  H     -471.053      56.474     271.503
  H     -468.942      56.008     279.468
  H     -464.993      54.544     268.577
  H     -466.747      55.604     274.670
  H     -468.854      57.272     272.060
  H     -469.898      54.679     272.362
  H     -466.870      54.956     267.214
  H     -469.346      54.568     274.711
  H     -468.183      55.859     267.872
  H     -470.583      57.359     274.999
  H     -468.827      57.640     276.727
  H     -469.983      56.341     277.118
  P     -471.741      53.386     274.884
  C     -472.848      51.643     273.309
  O     -472.519      53.008     273.528
  O     -472.883      53.316     276.004
  O     -470.594      52.502     275.233
  H     -472.514      52.945     276.828
  H     -473.359      51.545     272.374
  H     -473.481      51.297     274.099
  H     -471.952      51.059     273.289

 6  7  8  9  10  11  12  13  14  15  26  29  33  34 0
 6-311+G(2d,p)
 ****
 36  38  39  40  41 0
 6-311+G(2d,p)
 ****
 1  2  3  4  5  16  17  18  19  20  21  22  23  24  25 0
 3-21G
 ****
 27  28  30  31  32  35  37  42  43  44  45  46  47 0
 3-21G
 ****
 48  49 0
 3-21G
 ****


