%nproc=1
%NoSave
%Mem=1900MB
#P OB98/GEN NMR

erre ene a

0 1
  C      -88.955    -141.185      65.403
  O      -89.727    -141.554      64.276
  H      -88.370    -142.051      65.725
  H      -89.602    -140.874      66.227
  H      -88.267    -140.375      65.145
  P      -90.679    -140.449      63.616
  C      -92.569    -142.205      63.716
  O      -92.177    -140.870      64.005
  C      -93.235    -142.831      64.937
  O      -92.514    -142.484      66.135
  C      -94.680    -142.382      65.152
  O      -95.557    -143.111      64.311
  C      -94.852    -142.711      66.626
  O      -95.042    -144.130      66.788
  C      -93.489    -142.289      67.198
  N      -95.032    -138.936      70.674
  C      -95.368    -140.267      70.513
  N      -96.280    -140.759      71.379
  N      -94.873    -141.034      69.578
  C      -94.029    -140.384      68.745
  C      -93.630    -139.067      68.792
  C      -94.142    -138.240      69.864
  O      -93.857    -137.063      70.054
  N      -92.814    -138.751      67.737
  C      -92.686    -139.885      67.076
  N      -93.417    -140.905      67.639
  O      -90.485    -140.195      62.151
  O      -90.423    -139.138      64.494
  H      -95.784    -144.380      66.208
  H      -89.723    -138.583      64.104
  H      -95.462    -138.391      71.403
  H      -92.079    -140.022      66.189
  H      -93.181    -142.913      68.045
  H      -95.709    -142.213      67.080
  H      -96.889    -140.155      71.916
  H      -94.794    -141.301      65.023
  H      -96.578    -141.718      71.248
  H      -93.176    -143.922      64.830
  H      -91.667    -142.763      63.443
  H      -93.264    -142.223      62.870
  P      -96.529    -142.358      63.276
  C      -98.520    -143.654      64.292
  O      -97.972    -142.382      63.972
  O      -96.498    -142.895      61.885
  O      -96.117    -140.821      63.386
  H      -95.388    -140.561      62.770
  H      -99.479    -143.525      64.748
  H      -97.868    -144.163      64.971
  H      -98.625    -144.232      63.398

 6  7  8  9  10  11  12  13  14  15  26  29  33  34 0
 6-311+G(2d,p)
 ****
 36  38  39  40  41 0
 6-311+G(2d,p)
 ****
 1  2  3  4  5  16  17  18  19  20  21  22  23  24  25 0
 3-21G
 ****
 27  28  30  31  32  35  37  42  43  44  45  46  47 0
 3-21G
 ****
 48  49 0
 3-21G
 ****


