%nproc=1
%NoSave
%Mem=1900MB
#P OB98/GEN NMR

erre ene a

0 1
  C      180.654     233.875     282.498
  O      179.749     234.921     282.788
  H      180.836     233.303     283.412
  H      181.607     234.288     282.149
  H      180.242     233.200     281.740
  P      179.171     235.801     281.580
  C      179.742     238.125     280.603
  O      180.206     237.003     281.345
  C      180.688     239.321     280.782
  O      180.583     239.791     282.165
  C      182.176     238.999     280.525
  O      182.789     240.201     280.039
  C      182.643     238.668     281.935
  O      184.044     238.595     282.037
  C      181.925     239.785     282.704
  N      181.892     239.627     284.157
  C      182.930     240.197     284.893
  O      183.870     240.832     284.403
  N      182.866     240.016     286.250
  C      181.881     239.351     286.930
  O      181.862     239.248     288.149
  C      180.820     238.763     286.095
  C      180.867     238.929     284.770
  O      177.740     236.211     281.702
  O      179.409     234.872     280.292
  H      178.568     234.445     280.036
  H      184.381     237.981     281.345
  H      183.606     240.426     286.801
  H      180.028     238.222     286.600
  H      180.093     238.519     284.130
  H      182.373     240.758     282.460
  H      182.271     237.685     282.235
  H      182.324     238.193     279.799
  H      180.344     240.138     280.142
  H      178.741     238.383     280.968
  H      179.680     237.853     279.543
  P      183.322     240.376     278.533
  C      184.989     239.173     276.949
  O      184.348     239.174     278.220
  O      183.878     241.736     278.238
  O      182.059     240.051     277.595
  H      182.158     240.519     276.748
  H      185.638     238.325     276.877
  H      185.561     240.070     276.837
  H      184.250     239.123     276.177

 6  7  8  9  10  11  12  13  14  15  16  27  31  32  33  34  35 0
 6-311+G(2d,p)
 ****
 36  37 0
 6-311+G(2d,p)
 ****
 1  2  3  4  5  17  18  19  20  21  22  23  24  25 0
 3-21G
 ****
 26  28  29  30  38  39  40  41  42  43  44  45 0
 3-21G
 ****


