%nproc=1
%NoSave
%Mem=1900MB
#P OB98/GEN NMR

erre ene a

0 1
  C      302.881     -43.055    -104.515
  O      302.239     -43.800    -103.509
  H      302.131     -42.729    -105.240
  H      303.618     -43.686    -105.024
  H      303.377     -42.170    -104.106
  P      302.984     -44.003    -102.103
  C      301.694     -42.096    -100.934
  O      302.009     -43.488    -100.935
  C      300.188     -41.866    -100.764
  O      299.499     -42.266    -101.973
  C      299.591     -42.688     -99.617
  O      299.670     -42.059     -98.345
  C      298.140     -42.840    -100.063
  O      297.333     -41.740     -99.616
  C      298.238     -42.844    -101.593
  N      295.102     -46.600    -103.096
  C      294.803     -45.443    -102.385
  N      293.516     -45.310    -101.995
  N      295.688     -44.545    -102.075
  C      296.955     -44.868    -102.436
  C      297.374     -45.981    -103.127
  C      296.371     -46.947    -103.539
  O      296.584     -47.969    -104.175
  N      298.738     -45.995    -103.290
  C      299.151     -44.929    -102.622
  N      298.099     -44.173    -102.158
  O      304.126     -42.876    -102.124
  O      303.590     -45.358    -101.886
  H      297.283     -41.781     -98.640
  H      304.901     -43.186    -101.621
  H      294.371     -47.248    -103.328
  H      300.186     -44.637    -102.485
  H      297.451     -42.224    -102.046
  H      297.697     -43.745     -99.642
  H      292.809     -46.014    -102.133
  H      300.045     -43.679     -99.578
  H      293.295     -44.583    -101.317
  H      300.004     -40.791    -100.630
  H      302.027     -41.701    -101.892
  H      302.249     -41.587    -100.147
  P      299.662     -42.928     -97.002
  C      302.073     -43.972     -97.066
  O      301.163     -43.061     -96.481
  O      299.322     -44.395     -97.525
  O      298.706     -42.475     -95.942
  H      298.362     -44.600     -97.402
  H      303.018     -43.900     -96.569
  H      302.196     -43.737     -98.103
  H      301.693     -44.968     -96.968

 6  7  8  9  10  11  12  13  14  15  26  29  33  34 0
 6-311+G(2d,p)
 ****
 36  38  39  40  41 0
 6-311+G(2d,p)
 ****
 1  2  3  4  5  16  17  18  19  20  21  22  23  24  25 0
 3-21G
 ****
 27  28  30  31  32  35  37  42  43  44  45  46  47 0
 3-21G
 ****
 48  49 0
 3-21G
 ****


