%nproc=1
%NoSave
%Mem=1900MB
#P OB98/GEN NMR

erre ene a

0 1
  C     -215.167    -366.898    -181.874
  O     -216.302    -366.050    -182.106
  P     -215.982    -364.556    -182.610
  C     -215.751    -363.215    -180.405
  O     -215.083    -363.854    -181.476
  C     -215.105    -361.853    -180.071
  O     -215.419    -360.877    -181.114
  C     -215.555    -361.266    -178.727
  O     -214.423    -360.565    -178.168
  C     -216.626    -360.266    -179.158
  O     -216.974    -359.336    -178.153
  C     -215.989    -359.725    -180.425
  N     -219.130    -355.711    -180.709
  C     -218.361    -356.179    -179.702
  N     -217.551    -357.265    -179.698
  C     -217.585    -357.881    -180.908
  C     -218.322    -357.513    -182.017
  C     -219.133    -356.379    -181.898
  N     -219.943    -355.897    -182.907
  N     -218.114    -358.418    -183.066
  C     -217.316    -359.333    -182.536
  N     -216.909    -359.017    -181.279
  O     -217.386    -363.816    -182.507
  O     -215.408    -364.510    -183.986
  H     -217.413    -358.565    -178.551
  H     -217.813    -363.770    -183.373
  H     -218.393    -355.616    -178.779
  H     -217.002    -360.244    -183.039
  H     -215.152    -359.034    -180.196
  H     -217.555    -360.821    -179.407
  H     -215.913    -362.016    -178.009
  H     -214.015    -361.989    -180.067
  H     -215.718    -363.851    -179.512
  H     -220.500    -355.077    -182.712
  H     -219.990    -356.372    -183.785
  H     -216.811    -363.089    -180.658
  P     -213.675    -361.209    -176.905
  C     -214.378    -359.806    -174.876
  O     -214.665    -360.951    -175.665
  O     -212.551    -360.098    -176.640
  O     -213.146    -362.591    -177.083
  H     -212.932    -359.200    -176.612
  H     -215.181    -359.708    -174.124
  H     -214.368    -358.906    -175.492
  H     -213.423    -359.940    -174.357
  H     -215.502    -367.859    -181.544
  H     -214.543    -366.461    -181.123
  H     -214.611    -367.006    -182.782

 3  4  5  6  7  8  9  10  11  12  22  25  29  30  31  32 0
 6-311+G(2d,p)
 ****
 33  36  37 0
 6-311+G(2d,p)
 ****
 1  2  13  14  15  16  17  18  19  20  21  23  24  26 0
 3-21G
 ****
 27  28  34  35  38  39  40  41  42  43  44  45  46  47  48 0
 3-21G
 ****


