%nproc=1
%NoSave
%Mem=1900MB
#P OB98/GEN NMR

erre ene a

0 1
  C     -899.170    -630.464    -888.300
  O     -898.300    -631.456    -887.780
  H     -899.580    -630.774    -889.260
  H     -900.000    -630.301    -887.610
  H     -898.640    -629.507    -888.410
  P     -897.020    -631.813    -888.650
  C     -896.620    -633.114    -890.850
  O     -897.530    -632.714    -889.860
  C     -897.170    -634.292    -891.650
  O     -898.370    -633.900    -892.400
  C     -896.220    -634.877    -892.680
  O     -895.270    -635.758    -892.090
  C     -897.190    -635.631    -893.590
  O     -897.580    -636.862    -892.930
  C     -898.370    -634.656    -893.620
  N     -898.900    -634.197    -898.700
  C     -898.980    -635.266    -897.880
  N     -898.840    -635.321    -896.540
  C     -898.530    -634.093    -896.060
  C     -898.420    -632.881    -896.790
  C     -898.630    -632.995    -898.170
  N     -898.520    -631.912    -899.010
  N     -898.100    -631.838    -895.940
  C     -898.070    -632.388    -894.730
  N     -898.330    -633.742    -894.740
  O     -896.230    -632.861    -887.740
  O     -896.150    -630.656    -889.050
  H     -898.180    -637.323    -893.570
  H     -895.290    -632.913    -888.000
  H     -899.220    -636.220    -898.370
  H     -897.860    -631.836    -893.820
  H     -899.350    -635.191    -893.660
  H     -896.790    -635.873    -894.540
  H     -895.730    -634.072    -893.280
  H     -897.480    -635.090    -890.930
  H     -895.670    -633.418    -890.390
  H     -898.480    -632.117    -900.000
  H     -898.170    -631.012    -898.620
  H     -896.420    -632.270    -891.550
  P     -893.950    -636.088    -892.970
  C     -893.600    -637.502    -895.160
  O     -894.370    -637.296    -893.950
  O     -892.970    -636.784    -891.910
  O     -893.330    -634.895    -893.630
  H     -892.020    -636.661    -892.140
  H     -894.000    -638.335    -895.700
  H     -892.580    -637.699    -894.904
  H     -893.652    -636.624    -895.770

 6  7  8  9  10  11  12  13  14  15  25  28  32  33  34  35 0
 6-311+G(2d,p)
 ****
 36  39  40 0
 6-311+G(2d,p)
 ****
 1  2  3  4  5  16  17  18  19  20  21  22  23  24 0
 3-21G
 ****
 26  27  29  30  31  37  38  41  42  43  44  45  46  47 0
 3-21G
 ****
 48 0
 3-21G
 ****


