%nproc=1
%NoSave
%Mem=1900MB
#P OB98/GEN NMR

erre ene a

0 1
  C     -118.447      -6.477    -405.345
  O     -117.379      -6.787    -406.218
  P     -116.710      -8.248    -406.187
  C     -114.281      -7.403    -406.090
  O     -115.306      -8.142    -405.421
  C     -113.461      -6.591    -405.082
  O     -114.197      -5.425    -404.646
  C     -113.120      -7.350    -403.801
  O     -112.120      -8.330    -404.017
  C     -112.716      -6.201    -402.890
  O     -111.361      -5.792    -403.148
  C     -113.705      -5.091    -403.318
  N     -114.792      -4.915    -402.371
  C     -114.671      -3.843    -401.481
  O     -113.652      -3.152    -401.471
  N     -115.709      -3.583    -400.617
  C     -116.724      -4.396    -400.565
  N     -117.740      -4.054    -399.732
  C     -116.805      -5.630    -401.369
  C     -115.834      -5.813    -402.262
  O     -116.651      -8.943    -407.504
  O     -117.619      -9.066    -405.147
  H     -117.880      -9.914    -405.557
  H     -110.796      -6.570    -402.945
  H     -117.639      -6.310    -401.241
  H     -115.828      -6.681    -402.914
  H     -113.169      -4.138    -403.438
  H     -112.772      -6.467    -401.828
  H     -114.032      -7.827    -403.406
  H     -112.545      -6.254    -405.588
  H     -117.653      -3.192    -399.213
  H     -114.746      -6.730    -406.811
  H     -118.686      -4.421    -399.857
  H     -113.631      -8.102    -406.638
  P     -112.515      -9.852    -403.695
  C     -110.436      -9.873    -402.142
  O     -111.788     -10.253    -402.321
  O     -111.714     -10.681    -404.808
  O     -113.982     -10.147    -403.742
  H     -112.251     -11.454    -405.093
  H     -110.207      -9.896    -401.078
  H     -110.248      -8.861    -402.525
  H     -109.785     -10.588    -402.667
  H     -118.760      -5.467    -405.509
  H     -118.124      -6.590    -404.331
  H     -119.266      -7.139    -405.534

 3  4  5  6  7  8  9  10  11  12  13  24  27  28  29  30  32 0
 6-311+G(2d,p)
 ****
 34  35 0
 6-311+G(2d,p)
 ****
 1  2  14  15  16  17  18  19  20  21  22  23  25  26 0
 3-21G
 ****
 31  33  36  37  38  39  40  41  42  43  44  45  46 0
 3-21G
 ****


