%nproc=1
%NoSave
%Mem=1900MB
#P OB98/GEN NMR

erre ene a

0 1
  C     -140.764     -81.116    -233.788
  O     -139.857     -82.204    -233.693
  P     -138.701     -82.310    -234.799
  C     -139.802     -84.467    -235.707
  O     -138.614     -83.857    -235.222
  C     -139.512     -85.857    -236.261
  O     -140.743     -86.417    -236.797
  C     -138.465     -85.882    -237.388
  O     -137.572     -86.985    -237.177
  C     -139.289     -86.186    -238.627
  O     -138.510     -86.810    -239.643
  C     -140.379     -87.070    -238.028
  N     -143.036     -90.475    -240.649
  C     -142.057     -90.665    -239.694
  N     -141.695     -91.944    -239.448
  N     -141.478     -89.691    -239.042
  C     -141.959     -88.466    -239.369
  C     -142.932     -88.151    -240.289
  C     -143.520     -89.234    -241.046
  O     -144.328     -89.126    -241.967
  N     -143.160     -86.799    -240.328
  C     -142.327     -86.297    -239.439
  N     -141.542     -87.264    -238.865
  O     -137.368     -82.071    -233.946
  O     -138.804     -81.337    -235.924
  H     -138.262     -87.694    -239.312
  H     -136.863     -81.325    -234.324
  H     -143.435     -91.259    -241.131
  H     -142.236     -85.244    -239.203
  H     -139.977     -88.064    -237.782
  H     -139.698     -85.252    -239.026
  H     -142.126     -92.743    -239.886
  H     -137.891     -84.955    -237.488
  H     -140.996     -92.104    -238.734
  H     -139.202     -86.506    -235.431
  H     -140.227     -83.846    -236.500
  H     -140.525     -84.533    -234.887
  P     -136.148     -86.620    -236.528
  C     -135.069     -85.465    -238.597
  O     -135.110     -86.593    -237.747
  O     -135.759     -87.947    -235.722
  O     -136.171     -85.407    -235.658
  H     -135.141     -87.737    -234.997
  H     -135.673     -84.636    -238.215
  H     -135.447     -85.750    -239.583
  H     -134.034     -85.132    -238.696
  H     -141.475     -81.174    -232.990
  H     -141.276     -81.160    -234.726
  H     -140.224     -80.195    -233.719

 3  4  5  6  7  8  9  10  11  12  23  26  30  31  33  0
 6-311+G(2d,p)
 ****
 35  36  37  38 0
 6-311+G(2d,p)
 ****
 1  2  13  14  15  16  17  18  19  20  21  22  24  25  27  28  29 0
 3-21G
 ****
 32  34  39  40  41  42  43  44  45  46  47  48  49 0
 3-21G
 ****


