%nproc=1
%NoSave
%Mem=1900MB
#P OB98/GEN NMR

erre ene a

0 1
  C     -315.503    -893.004      -1.170
  O     -315.776    -894.314      -1.631
  H     -315.403    -893.044      -0.075
  H     -316.324    -892.334      -1.422
  H     -314.562    -892.634      -1.593
  P     -316.040    -894.534      -3.190
  C     -314.137    -896.154      -3.856
  O     -314.604    -894.814      -3.870
  C     -313.674    -896.564      -5.256
  O     -314.800    -896.394      -6.164
  C     -312.501    -895.704      -5.762
  O     -311.395    -896.464      -6.204
  C     -313.173    -894.774      -6.788
  O     -312.306    -894.294      -7.791
  C     -314.353    -895.624      -7.293
  N     -315.460    -894.814      -7.831
  C     -315.252    -894.194      -9.045
  O     -314.224    -894.274      -9.724
  N     -316.303    -893.434      -9.519
  C     -317.499    -893.254      -8.887
  O     -318.398    -892.564      -9.355
  C     -317.645    -893.934      -7.587
  C     -316.638    -894.664      -7.123
  O     -316.858    -893.494      -3.870
  O     -316.750    -895.984      -3.261
  H     -312.833    -893.734      -8.401
  H     -317.712    -895.864      -3.397
  H     -316.166    -892.984     -10.400
  H     -318.563    -893.784      -7.056
  H     -316.705    -895.154      -6.158
  H     -314.024    -896.304      -8.068
  H     -313.560    -893.904      -6.242
  H     -312.087    -895.094      -4.953
  H     -313.413    -897.634      -5.251
  H     -314.967    -896.794      -3.532
  H     -313.306    -896.234      -3.145
  P     -309.974    -896.534      -5.472
  C     -309.708    -899.134      -5.613
  O     -309.823    -897.974      -4.796
  O     -309.636    -895.354      -4.619
  O     -308.916    -896.584      -6.706
  H     -308.110    -896.094      -6.382
  H     -309.616    -900.000      -4.992
  H     -308.842    -899.048      -6.235
  H     -310.580    -899.226      -6.227

 6  7  8  9  10  11  12  13  14  15  16  26  31  32  33  34  35 0
 6-311+G(2d,p)
 ****
 36  37 0
 6-311+G(2d,p)
 ****
 1  2  3  4  5  17  18  19  20  21  22  23  24  25 0
 3-21G
 ****
 27  28  29  30  38  39  40  41  42  43  44  45 0
 3-21G
 ****


