%nproc=1
%NoSave
%Mem=1900MB
#P OB98/GEN NMR

erre ene a

0 1
  C      525.725     209.259     104.486
  O      526.906     209.335     103.711
  H      525.953     209.516     105.523
  H      524.998     209.979     104.097
  H      525.292     208.256     104.437
  P      527.991     208.170     103.903
  C      528.692     208.491     101.424
  O      529.114     208.407     102.776
  C      529.894     208.569     100.483
  O      530.466     209.902     100.581
  C      531.005     207.555     100.802
  O      531.551     207.082      99.567
  C      532.058     208.402     101.506
  O      533.369     207.862     101.389
  C      531.876     209.748     100.805
  N      536.198     211.987     102.301
  C      535.927     211.123     101.299
  N      534.733     210.613     100.934
  C      533.743     211.134     101.682
  C      533.864     212.031     102.733
  C      535.165     212.448     103.049
  N      535.454     213.277     104.117
  N      532.620     212.284     103.287
  C      531.775     211.536     102.600
  N      532.410     210.825     101.619
  O      527.203     206.875     103.382
  O      528.505     207.994     105.292
  H      533.958     208.327     102.009
  H      526.700     206.482     104.119
  H      536.787     210.790     100.725
  H      530.715     211.451     102.787
  H      532.391     209.787      99.831
  H      531.808     208.478     102.569
  H      530.678     206.708     101.413
  H      529.544     208.448      99.452
  H      528.080     209.393     101.295
  H      536.423     213.431     104.332
  H      534.715     213.536     104.747
  H      528.075     207.615     101.181
  P      531.743     205.495      99.403
  C      530.739     205.198      97.015
  O      531.899     205.158      97.847
  O      530.300     204.914      99.766
  O      532.813     204.923     100.285
  H      530.386     204.046     100.199
  H      531.012     204.950      96.011
  H      530.318     206.181      97.038
  H      530.019     204.493      97.373

 6  7  8  9  10  11  12  13  14  15  25  28  32  33  34  35 0
 6-311+G(2d,p)
 ****
 36  39  40 0
 6-311+G(2d,p)
 ****
 1  2  3  4  5  16  17  18  19  20  21  22  23  24 0
 3-21G
 ****
 26  27  29  30  31  37  38  41  42  43  44  45  46  47 0
 3-21G
 ****
 48 0
 3-21G
 ****


