%nproc=1
%NoSave
%Mem=1900MB
#P OB98/GEN NMR

erre ene a

0 1
  C      980.709     425.867    1042.717
  O      980.069     426.148    1043.943
  H      980.856     426.801    1042.174
  H      980.083     425.203    1042.113
  H      981.687     425.402    1042.886
  P      979.949     424.935    1044.988
  C      982.339     425.365    1045.928
  O      980.943     425.283    1046.202
  C      983.056     426.150    1047.026
  O      982.959     427.571    1046.764
  C      982.472     425.938    1048.419
  O      982.971     424.757    1049.025
  C      982.996     427.180    1049.128
  O      984.393     427.000    1049.454
  C      982.830     428.252    1048.052
  N      979.838     431.298    1050.785
  C      981.089     430.779    1051.083
  N      981.606     431.114    1052.279
  N      981.764     429.997    1050.264
  C      981.115     429.741    1049.114
  C      979.883     430.216    1048.703
  C      979.151     431.067    1049.596
  O      978.067     431.570    1049.377
  N      979.559     429.741    1047.461
  C      980.589     428.987    1047.114
  N      981.557     428.942    1048.089
  O      980.685     423.720    1044.238
  O      978.560     424.566    1045.383
  H      984.446     426.229    1050.047
  H      980.226     422.895    1044.460
  H      979.369     431.886    1051.440
  H      980.684     428.448    1046.181
  H      983.620     429.009    1048.094
  H      982.477     427.381    1050.065
  H      981.122     431.672    1052.971
  H      981.369     425.959    1048.409
  H      982.544     430.768    1052.508
  H      984.108     425.875    1046.998
  H      982.483     425.870    1044.969
  H      982.743     424.349    1045.850
  P      981.990     423.944    1050.020
  C      981.417     421.891    1048.507
  O      982.172     422.390    1049.619
  O      980.541     424.307    1049.447
  O      982.135     424.272    1051.461
  H      979.869     424.186    1050.156
  H      981.639     420.855    1048.361
  H      981.676     422.439    1047.625
  H      980.372     422.007    1048.705

 6  7  8  9  10  11  12  13  14  15  26  29  33  34 0
 6-311+G(2d,p)
 ****
 36  38  39  40  41 0
 6-311+G(2d,p)
 ****
 1  2  3  4  5  16  17  18  19  20  21  22  23  24  25 0
 3-21G
 ****
 27  28  30  31  32  35  37  42  43  44  45  46  47 0
 3-21G
 ****
 48  49 0
 3-21G
 ****


