%nproc=1
%NoSave
%Mem=1900MB
#P OB98/GEN NMR

erre ene a

0 1
  C     -354.845    -405.506    -495.383
  O     -355.689    -406.223    -494.507
  H     -353.831    -405.484    -494.978
  H     -354.825    -406.016    -496.350
  H     -355.212    -404.486    -495.529
  P     -356.104    -405.507    -493.135
  C     -358.596    -404.847    -493.462
  O     -357.239    -404.430    -493.512
  C     -359.217    -404.818    -494.857
  O     -358.478    -405.738    -495.713
  C     -360.698    -405.227    -494.895
  O     -361.371    -404.398    -495.850
  C     -360.653    -406.649    -495.425
  O     -361.861    -407.032    -496.075
  C     -359.446    -406.582    -496.359
  N     -360.748    -411.348    -497.556
  C     -361.418    -410.180    -497.645
  N     -360.974    -408.940    -497.354
  C     -359.680    -408.969    -496.996
  C     -358.864    -410.082    -496.863
  C     -359.458    -411.325    -497.147
  N     -358.802    -412.526    -496.992
  N     -357.611    -409.709    -496.419
  C     -357.678    -408.400    -496.260
  N     -358.908    -407.908    -496.593
  O     -354.820    -404.600    -492.818
  O     -356.436    -406.417    -492.003
  H     -361.735    -407.914    -496.475
  H     -354.171    -405.120    -492.311
  H     -362.447    -410.250    -497.988
  H     -356.886    -407.772    -495.880
  H     -359.691    -406.144    -497.332
  H     -360.472    -407.341    -494.595
  H     -361.204    -405.157    -493.925
  H     -359.082    -403.814    -495.274
  H     -359.154    -404.165    -492.810
  H     -359.342    -413.371    -497.117
  H     -357.878    -412.530    -496.583
  H     -358.646    -405.857    -493.044
  P     -361.620    -402.864    -495.449
  C     -360.778    -401.606    -497.568
  O     -360.539    -401.959    -496.210
  O     -361.140    -402.803    -493.923
  O     -363.038    -402.419    -495.601
  H     -361.673    -402.155    -493.428
  H     -359.969    -401.005    -497.928
  H     -361.692    -401.053    -497.637
  H     -360.853    -402.494    -498.160

 6  7  8  9  10  11  12  13  14  15  25  28  32  33  34  35 0
 6-311+G(2d,p)
 ****
 36  39  40 0
 6-311+G(2d,p)
 ****
 1  2  3  4  5  16  17  18  19  20  21  22  23  24 0
 3-21G
 ****
 26  27  29  30  31  37  38  41  42  43  44  45  46  47 0
 3-21G
 ****
 48 0
 3-21G
 ****


