%nproc=1
%NoSave
%Mem=1900MB
#P OB98/GEN NMR

erre ene a

0 1
  C      131.876     -28.736     -16.453
  O      132.441     -29.095     -15.188
  P      131.436     -29.634     -14.058
  C      132.587     -28.603     -11.942
  O      132.315     -29.758     -12.724
  C      134.024     -28.647     -11.427
  O      134.953     -28.280     -12.476
  C      134.305     -27.683     -10.283
  O      133.746     -28.149      -9.065
  C      135.826     -27.636     -10.313
  O      136.376     -28.783      -9.646
  C      136.119     -27.717     -11.827
  N      136.485     -26.433     -12.408
  C      137.798     -26.023     -12.194
  O      138.607     -26.675     -11.536
  N      138.146     -24.820     -12.745
  C      137.320     -23.993     -13.449
  O      137.691     -22.930     -13.929
  C      135.932     -24.456     -13.602
  C      135.582     -25.636     -13.082
  O      131.218     -31.143     -14.534
  O      130.193     -28.817     -13.947
  H      132.014     -31.536     -14.931
  H      136.042     -28.753      -8.726
  H      139.097     -24.512     -12.611
  H      135.242     -23.813     -14.132
  H      134.562     -25.993     -13.182
  H      136.939     -28.421     -12.015
  H      136.227     -26.745      -9.819
  H      133.898     -26.693     -10.522
  H      134.245     -29.677     -11.117
  H      131.902     -28.561     -11.090
  H      132.411     -27.713     -12.552
  P      132.797     -27.126      -8.265
  C      133.637     -27.888      -5.910
  O      132.562     -27.766      -6.816
  O      131.401     -27.346      -9.018
  O      133.290     -25.717      -8.278
  H      131.200     -28.282      -9.180
  H      133.233     -28.006      -4.901
  H      134.278     -27.004      -5.928
  H      134.227     -28.773      -6.158
  H      132.652     -28.396     -17.107
  H      131.159     -27.954     -16.314
  H      131.395     -29.589     -16.884

 3  4  5  6  7  8  9  10  11  12  13  24  28  29  30  31  32 0
 6-311+G(2d,p)
 ****
 33  34 0
 6-311+G(2d,p)
 ****
 1  2  14  15  16  17  18  19  20  21  22  23  25  26  27 0
 3-21G
 ****
 35  36  37  38  39  40  41  42  43  44  45 0
 3-21G
 ****


