%nproc=1
%NoSave
%Mem=1900MB
#P OB98/GEN NMR

erre ene a

0 1
  C      131.274     154.298    -141.937
  O      131.376     152.992    -142.466
  H      131.554     155.014    -142.715
  H      131.958     154.411    -141.093
  H      130.249     154.507    -141.617
  P      130.813     151.799    -141.552
  C      132.962     151.218    -140.216
  O      131.674     151.817    -140.198
  C      133.251     150.549    -138.876
  O      133.423     151.545    -137.843
  C      132.146     149.618    -138.388
  O      132.238     148.330    -138.984
  C      132.465     149.559    -136.904
  O      133.587     148.679    -136.681
  C      132.863     151.011    -136.611
  N      131.031     153.897    -132.866
  C      132.205     153.170    -132.934
  N      133.001     153.209    -131.844
  N      132.566     152.463    -133.974
  C      131.667     152.506    -134.987
  C      130.473     153.190    -135.039
  C      130.090     153.974    -133.887
  O      129.074     154.656    -133.784
  N      129.839     153.001    -136.238
  C      130.637     152.189    -136.903
  N      131.757     151.853    -136.184
  O      131.334     150.480    -142.301
  O      129.333     151.772    -141.374
  H      133.805     148.737    -135.733
  H      130.657     149.782    -142.215
  H      130.796     154.414    -132.038
  H      130.451     151.819    -137.902
  H      133.637     151.084    -135.839
  H      131.635     149.175    -136.309
  H      132.758     153.693    -130.992
  H      131.154     150.061    -138.531
  H      133.881     152.711    -131.882
  H      134.201     150.005    -138.968
  H      133.715     151.989    -140.405
  H      132.998     150.479    -141.022
  P      130.894     147.453    -139.070
  C      131.125     145.395    -137.502
  O      130.739     146.759    -137.633
  O      131.318     146.238    -140.023
  O      129.699     148.179    -139.584
  H      130.525     145.849    -140.441
  H      130.965     145.074    -136.494
  H      132.161     145.292    -137.749
  H      130.539     144.793    -138.165

 6  7  8  9  10  11  12  13  14  15  26  29  33  34 0
 6-311+G(2d,p)
 ****
 36  38  39  40  41 0
 6-311+G(2d,p)
 ****
 1  2  3  4  5  16  17  18  19  20  21  22  23  24  25 0
 3-21G
 ****
 27  28  30  31  32  35  37  42  43  44  45  46  47 0
 3-21G
 ****
 48  49 0
 3-21G
 ****


