%nproc=1
%NoSave
%Mem=1900MB
#P OB98/GEN NMR

erre ene a

0 1
  C      -66.991     247.036     262.650
  O      -65.725     247.080     263.278
  H      -67.246     245.993     262.449
  H      -66.967     247.582     261.701
  H      -67.750     247.466     263.310
  P      -65.138     248.537     263.610
  C      -65.735     248.803     266.108
  O      -64.726     248.463     265.166
  C      -65.319     248.372     267.516
  O      -64.932     246.972     267.471
  C      -64.128     249.162     268.073
  O      -64.304     249.342     269.483
  C      -62.950     248.235     267.830
  O      -61.857     248.505     268.704
  C      -63.606     246.867     268.026
  N      -59.057     244.579     267.836
  C      -59.583     245.473     268.697
  N      -60.822     246.017     268.686
  C      -61.562     245.497     267.685
  C      -61.159     244.579     266.729
  C      -59.832     244.118     266.823
  N      -59.279     243.233     265.927
  N      -62.191     244.333     265.839
  C      -63.195     245.081     266.258
  N      -62.850     245.818     267.361
  O      -66.017     249.687     263.244
  O      -63.718     248.499     262.875
  H      -62.203     248.569     269.620
  H      -63.238     247.668     263.062
  H      -58.924     245.808     269.499
  H      -64.176     245.137     265.793
  H      -63.693     246.585     269.085
  H      -62.595     248.350     266.798
  H      -63.992     250.134     267.594
  H      -66.190     248.441     268.180
  H      -66.682     248.319     265.839
  H      -58.316     242.953     266.071
  H      -59.836     242.874     265.170
  H      -65.877     249.888     266.069
  P      -64.121     250.802     270.116
  C      -66.092     252.166     269.159
  O      -65.571     251.479     270.292
  O      -63.094     251.669     269.456
  O      -63.709     250.482     271.634
  H      -62.992     251.092     271.906
  H      -67.054     252.570     269.398
  H      -66.185     251.484     268.340
  H      -65.429     252.961     268.888

 6  7  8  9  10  11  12  13  14  15  25  28  32  33  34  35 0
 6-311+G(2d,p)
 ****
 36  39  40 0
 6-311+G(2d,p)
 ****
 1  2  3  4  5  16  17  18  19  20  21  22  23  24 0
 3-21G
 ****
 26  27  29  30  31  37  38  41  42  43  44  45  46  47 0
 3-21G
 ****
 48 0
 3-21G
 ****


