%nproc=1
%NoSave
%Mem=1900MB
#P OB98/GEN NMR

erre ene a

0 1
  C      -55.638    -182.371     514.419
  O      -55.900    -181.086     514.943
  H      -54.643    -182.687     514.747
  H      -55.650    -182.347     513.326
  H      -56.371    -183.092     514.785
  P      -57.303    -180.390     514.600
  C      -56.267    -179.413     512.438
  O      -56.906    -179.137     513.675
  C      -55.869    -178.111     511.750
  O      -57.029    -177.341     511.369
  C      -55.043    -177.158     512.606
  O      -53.699    -177.575     512.793
  C      -55.145    -175.897     511.769
  O      -54.280    -176.002     510.626
  C      -56.634    -175.940     511.353
  N      -57.492    -175.153     512.241
  C      -57.952    -173.931     511.747
  O      -57.635    -173.547     510.621
  N      -58.740    -173.145     512.555
  C      -59.022    -173.537     513.759
  N      -59.801    -172.716     514.515
  C      -58.539    -174.811     514.329
  C      -57.790    -175.562     513.523
  O      -58.180    -180.072     515.770
  O      -57.989    -181.372     513.537
  H      -54.610    -176.746     510.089
  H      -58.868    -180.991     513.300
  H      -58.777    -175.077     515.346
  H      -57.393    -176.507     513.874
  H      -56.764    -175.578     510.326
  H      -54.857    -174.994     512.312
  H      -55.532    -176.978     513.571
  H      -55.342    -178.377     510.823
  H      -60.117    -171.848     514.100
  H      -56.958    -179.991     511.817
  H      -60.007    -172.903     515.489
  H      -55.363    -180.005     512.607
  P      -53.168    -177.663     514.309
  C      -52.856    -175.121     514.807
  O      -52.250    -176.375     514.540
  O      -52.136    -178.881     514.256
  O      -54.234    -177.858     515.342
  H      -52.551    -179.701     514.582
  H      -52.097    -174.378     514.934
  H      -53.440    -175.190     515.701
  H      -53.488    -174.849     513.988

 6  7  8  9  10  11  12  13  14  15  16  26  30  31  32  33  35 0
 6-311+G(2d,p)
 ****
 37  38 0
 6-311+G(2d,p)
 ****
 1  2  3  4  5  17  18  19  20  21  22  23  24  25 0
 3-21G
 ****
 27  28  29  34  36  39  40  41  42  43  44  45  46 0
 3-21G
 ****


