%nproc=1
%NoSave
%Mem=1900MB
#P OB98/GEN NMR

erre ene a

0 1
  C     -223.757    -190.177     128.983
  O     -224.357    -191.373     129.466
  P     -225.579    -191.310     130.503
  C     -226.909    -192.827     128.904
  O     -226.467    -192.624     130.244
  C     -227.802    -194.065     128.812
  O     -226.980    -195.247     128.999
  C     -228.904    -194.099     129.866
  O     -230.075    -194.688     129.293
  C     -228.375    -195.040     130.933
  O     -229.449    -195.653     131.670
  C     -227.532    -196.007     130.096
  N     -222.923    -198.264     129.837
  C     -223.732    -197.762     128.878
  N     -224.950    -197.200     129.017
  C     -225.302    -197.135     130.313
  C     -224.577    -197.598     131.403
  C     -223.332    -198.193     131.128
  N     -222.503    -198.694     132.107
  N     -225.270    -197.381     132.579
  C     -226.378    -196.778     132.206
  N     -226.438    -196.596     130.850
  O     -226.350    -190.030     130.498
  O     -224.913    -191.599     131.928
  H     -229.043    -196.274     132.307
  H     -225.332    -191.047     132.618
  H     -223.344    -197.823     127.860
  H     -227.172    -196.462     132.872
  H     -228.141    -196.820     129.675
  H     -227.755    -194.482     131.645
  H     -229.143    -193.105     130.265
  H     -228.228    -194.116     127.798
  H     -226.028    -192.967     128.270
  H     -221.577    -198.994     131.828
  H     -222.727    -198.488     133.072
  H     -227.445    -191.933     128.556
  P     -231.388    -193.751     129.248
  C     -231.700    -193.724     126.664
  O     -232.158    -194.193     127.912
  O     -231.047    -192.300     129.395
  O     -232.248    -194.365     130.452
  H     -232.009    -195.308     130.626
  H     -232.375    -194.099     125.881
  H     -230.695    -194.104     126.463
  H     -231.698    -192.629     126.639
  H     -222.965    -190.423     128.307
  H     -223.362    -189.618     129.806
  H     -224.492    -189.590     128.473

 3  4  5  6  7  8  9  10  11  12  22  25  29  30  31  32 0
 6-311+G(2d,p)
 ****
 33  36  37 0
 6-311+G(2d,p)
 ****
 1  2  13  14  15  16  17  18  19  20  21  23  24  26 0
 3-21G
 ****
 27  28  34  35  38  39  40  41  42  43  44  45  46  47  48 0
 3-21G
 ****


