%nproc=1
%NoSave
%Mem=1900MB
#P OB98/GEN NMR

erre ene a

0 1
  C     1026.271    -262.371    -418.424
  O     1027.641    -262.310    -418.754
  H     1025.837    -261.365    -418.532
  H     1026.135    -262.699    -417.391
  H     1025.746    -263.056    -419.105
  P     1028.466    -263.684    -418.630
  C     1030.314    -262.296    -417.421
  O     1029.484    -263.471    -417.411
  C     1031.224    -262.306    -416.188
  O     1030.452    -262.222    -414.980
  C     1032.116    -263.518    -416.056
  O     1033.284    -263.392    -416.859
  C     1032.434    -263.508    -414.565
  O     1033.477    -262.568    -414.262
  C     1031.094    -263.029    -413.971
  N     1030.266    -266.620    -410.503
  C     1031.236    -265.658    -410.559
  N     1032.169    -265.672    -409.571
  N     1031.308    -264.745    -411.516
  C     1030.316    -264.873    -412.429
  C     1029.304    -265.786    -412.491
  C     1029.224    -266.768    -411.413
  O     1028.327    -267.623    -411.278
  N     1028.513    -265.594    -413.594
  C     1029.085    -264.590    -414.226
  N     1030.213    -264.115    -413.582
  O     1029.426    -263.657    -419.921
  O     1027.640    -264.928    -418.596
  H     1034.342    -263.024    -414.310
  H     1029.597    -264.573    -420.207
  H     1030.251    -267.279    -409.752
  H     1028.717    -264.146    -415.163
  H     1031.235    -262.417    -413.089
  H     1032.763    -264.489    -414.215
  H     1032.354    -266.496    -409.032
  H     1031.566    -264.434    -416.306
  H     1032.889    -264.957    -409.618
  H     1031.841    -261.370    -416.256
  H     1029.673    -261.431    -417.409
  H     1030.916    -262.303    -418.348
  P     1033.779    -264.705    -417.644
  C     1035.925    -263.405    -418.354
  O     1035.389    -264.579    -417.775
  O     1033.288    -264.447    -419.140
  O     1033.261    -266.005    -417.116
  H     1033.306    -265.264    -419.654
  H     1036.993    -263.471    -418.370
  H     1035.629    -262.555    -417.776
  H     1035.559    -263.301    -419.354

 6  7  8  9  10  11  12  13  14  15  26  29  33  34 0
 6-311+G(2d,p)
 ****
 36  38  39  40  41 0
 6-311+G(2d,p)
 ****
 1  2  3  4  5  16  17  18  19  20  21  22  23  24  25 0
 3-21G
 ****
 27  28  30  31  32  35  37  42  43  44  45  46  47 0
 3-21G
 ****
 48  49 0
 3-21G
 ****


