%nproc=1
%NoSave
%Mem=1900MB
#P OB98/GEN NMR

erre ene a

0 1
  C       38.855    -571.928    -620.557
  O       39.212    -573.302    -620.526
  P       39.430    -573.981    -619.099
  C       39.173    -576.214    -620.393
  O       39.884    -575.495    -619.374
  C       39.069    -577.687    -620.027
  O       38.520    -577.823    -618.716
  C       38.174    -578.517    -620.943
  O       38.834    -578.894    -622.136
  C       37.898    -579.729    -620.065
  O       38.991    -580.660    -620.162
  C       37.824    -579.104    -618.647
  N       33.705    -581.275    -616.678
  C       34.909    -581.842    -617.031
  N       35.066    -583.165    -616.797
  N       35.891    -581.164    -617.561
  C       35.625    -579.851    -617.706
  C       34.460    -579.165    -617.410
  C       33.353    -579.934    -616.870
  O       32.241    -579.516    -616.595
  N       34.556    -577.830    -617.683
  C       35.786    -577.682    -618.107
  N       36.475    -578.882    -618.169
  O       37.924    -574.136    -618.515
  O       40.299    -573.204    -618.143
  H       38.945    -581.062    -621.051
  H       37.947    -574.146    -617.540
  H       32.978    -581.853    -616.263
  H       36.246    -576.742    -618.385
  H       38.368    -579.726    -617.918
  H       36.981    -580.271    -620.362
  H       34.384    -583.717    -616.270
  H       37.240    -577.994    -621.145
  H       35.960    -583.588    -617.005
  H       40.095    -578.104    -620.014
  H       39.709    -576.119    -621.355
  H       38.177    -575.770    -620.512
  P       37.905    -579.531    -623.288
  C       39.209    -578.065    -625.011
  O       38.755    -579.364    -624.653
  O       36.703    -578.490    -623.430
  O       37.408    -580.924    -622.998
  H       35.907    -578.937    -623.789
  H       39.496    -577.493    -624.121
  H       38.418    -577.542    -625.557
  H       40.080    -578.164    -625.665
  H       38.743    -571.611    -621.573
  H       39.622    -571.350    -620.086
  H       37.931    -571.788    -620.036

 3  4  5  6  7  8  9  10  11  12  23  26  30  31  33  0
 6-311+G(2d,p)
 ****
 35  36  37  38 0
 6-311+G(2d,p)
 ****
 1  2  13  14  15  16  17  18  19  20  21  22  24  25  27  28  29 0
 3-21G
 ****
 32  34  39  40  41  42  43  44  45  46  47  48  49 0
 3-21G
 ****


