%nproc=1
%NoSave
%Mem=1900MB
#P OB98/GEN NMR

erre ene a

0 1
  C      637.876     291.109     534.677
  O      636.615     291.615     534.279
  H      638.476     291.931     535.067
  H      638.395     290.667     533.820
  H      637.744     290.354     535.462
  P      635.615     290.574     533.570
  C      636.706     291.517     531.392
  O      636.267     290.374     532.105
  C      636.507     291.314     529.883
  O      637.555     290.483     529.352
  C      635.203     290.606     529.517
  O      634.073     291.449     529.574
  C      635.533     290.191     528.100
  O      635.468     291.340     527.224
  C      636.991     289.698     528.269
  N      637.064     288.265     528.561
  C      636.833     287.393     527.498
  O      636.545     287.821     526.372
  N      636.868     286.033     527.726
  C      637.154     285.579     528.919
  N      637.168     284.232     529.091
  C      637.429     286.469     530.061
  C      637.371     287.785     529.814
  O      634.320     291.466     533.251
  O      635.341     289.316     534.312
  H      635.623     291.006     526.325
  H      633.698     290.959     532.679
  H      637.648     286.047     531.041
  H      637.575     288.488     530.605
  H      637.580     289.899     527.359
  H      634.846     289.448     527.690
  H      635.043     289.702     530.127
  H      636.587     292.298     529.404
  H      636.921     283.657     528.291
  H      637.782     291.664     531.611
  H      637.228     283.802     529.997
  H      636.148     292.416     531.715
  P      632.732     290.861     530.225
  C      631.280     290.183     528.161
  O      632.160     289.757     529.209
  O      631.683     292.068     530.097
  O      632.877     290.398     531.640
  H      631.070     292.072     530.847
  H      630.988     289.337     527.574
  H      631.784     290.892     527.538
  H      630.411     290.638     528.588

 6  7  8  9  10  11  12  13  14  15  16  26  30  31  32  33  35 0
 6-311+G(2d,p)
 ****
 37  38 0
 6-311+G(2d,p)
 ****
 1  2  3  4  5  17  18  19  20  21  22  23  24  25 0
 3-21G
 ****
 27  28  29  34  36  39  40  41  42  43  44  45  46 0
 3-21G
 ****


