%nproc=1
%NoSave
%Mem=1900MB
#P OB98/GEN NMR

erre ene a

0 1
  C       27.546      54.761    -211.466
  O       27.949      53.536    -210.887
  H       28.403      55.439    -211.479
  H       26.752      55.217    -210.870
  H       27.204      54.610    -212.493
  P       26.902      52.323    -210.835
  C       27.861      51.398    -213.033
  O       26.695      51.829    -212.349
  C       27.701      49.957    -213.514
  O       26.558      49.887    -214.404
  C       28.921      49.422    -214.271
  O       29.099      48.047    -213.928
  C       28.509      49.534    -215.726
  O       29.185      48.591    -216.555
  C       27.001      49.304    -215.645
  N       23.923      48.354    -219.534
  C       24.370      47.522    -218.527
  N       23.958      46.237    -218.572
  N       25.156      47.914    -217.560
  C       25.480      49.229    -217.631
  C       25.104      50.153    -218.575
  C       24.244      49.703    -219.650
  O       23.827      50.389    -220.575
  N       25.660      51.381    -218.317
  C       26.372      51.197    -217.221
  N       26.303      49.905    -216.771
  O       25.632      52.604    -210.098
  O       27.726      51.127    -210.168
  H       30.147      48.761    -216.457
  H       27.501      51.039    -209.223
  H       23.326      47.997    -220.261
  H       26.957      51.957    -216.720
  H       26.741      48.239    -215.641
  H       28.734      50.542    -216.097
  H       23.339      45.868    -219.277
  H       29.836      49.982    -214.056
  H       24.254      45.613    -217.830
  H       27.468      49.326    -212.648
  H       28.709      51.464    -212.342
  H       28.049      52.059    -213.886
  P       30.568      47.413    -214.023
  C       31.251      48.015    -211.614
  O       31.521      48.198    -212.999
  O       31.113      47.249    -215.403
  O       30.386      45.990    -213.303
  H       31.014      45.355    -213.697
  H       31.948      48.585    -211.036
  H       31.346      46.978    -211.366
  H       30.256      48.344    -211.398

 6  7  8  9  10  11  12  13  14  15  26  29  33  34 0
 6-311+G(2d,p)
 ****
 36  38  39  40  41 0
 6-311+G(2d,p)
 ****
 1  2  3  4  5  16  17  18  19  20  21  22  23  24  25 0
 3-21G
 ****
 27  28  30  31  32  35  37  42  43  44  45  46  47 0
 3-21G
 ****
 48  49 0
 3-21G
 ****


