%nproc=1
%NoSave
%Mem=1900MB
#P OB98/GEN NMR

erre ene a

0 1
  C      369.005     -15.075    -114.949
  O      368.907     -14.619    -113.596
  P      368.311     -15.606    -112.482
  C      365.750     -15.573    -112.796
  O      366.960     -16.274    -113.042
  C      364.530     -16.453    -113.104
  O      364.481     -17.567    -112.174
  C      363.200     -15.694    -113.003
  O      362.369     -15.857    -114.153
  C      362.613     -16.182    -111.686
  O      361.200     -16.041    -111.625
  C      363.171     -17.607    -111.572
  N      363.210     -18.067    -110.184
  C      362.132     -18.831    -109.755
  O      361.143     -19.059    -110.450
  N      362.194     -19.282    -108.461
  C      363.167     -18.979    -107.557
  O      363.156     -19.368    -106.390
  C      364.251     -18.113    -108.046
  C      364.222     -17.708    -109.320
  O      368.209     -15.042    -111.103
  O      369.339     -16.840    -112.513
  H      360.800     -16.623    -112.309
  H      369.469     -17.147    -111.592
  H      361.426     -19.854    -108.136
  H      365.028     -17.834    -107.354
  H      364.996     -17.058    -109.710
  H      362.555     -18.317    -112.136
  H      363.031     -15.574    -110.878
  H      363.358     -14.614    -112.947
  H      364.664     -16.857    -114.114
  H      365.712     -14.682    -113.428
  H      365.740     -15.218    -111.761
  P      362.286     -14.821    -115.364
  C      360.807     -13.055    -114.173
  O      362.061     -13.356    -114.760
  O      361.360     -15.187    -116.476
  O      363.797     -14.771    -115.900
  H      363.792     -14.734    -116.877
  H      360.687     -11.965    -114.155
  H      360.786     -13.427    -113.146
  H      359.985     -13.489    -114.748
  H      369.420     -14.299    -115.558
  H      368.031     -15.330    -115.311
  H      369.637     -15.937    -114.990

 3  4  5  6  7  8  9  10  11  12  13  23  28  29  30  31  32 0
 6-311+G(2d,p)
 ****
 33  34 0
 6-311+G(2d,p)
 ****
 1  2  14  15  16  17  18  19  20  21  22  24  25  26  27 0
 3-21G
 ****
 35  36  37  38  39  40  41  42  43  44  45 0
 3-21G
 ****


