%nproc=1
%NoSave
%Mem=1900MB
#P OB98/GEN NMR

erre ene a

0 1
  C      287.936      24.437      72.365
  O      286.996      25.491      72.369
  P      285.424      25.178      72.454
  C      283.861      23.532      71.235
  O      285.074      24.279      71.169
  C      283.202      23.479      69.859
  O      282.813      24.806      69.411
  C      284.115      22.963      68.753
  O      284.527      21.614      68.826
  C      283.346      23.389      67.510
  O      282.293      22.473      67.209
  C      282.763      24.755      67.963
  N      283.475      25.881      67.359
  C      283.285      26.055      65.990
  O      282.572      25.324      65.301
  N      283.977      27.092      65.419
  C      284.855      27.921      66.057
  O      285.478      28.803      65.473
  C      285.026      27.677      67.500
  C      284.339      26.682      68.077
  O      284.549      26.377      72.631
  O      285.324      24.116      73.649
  H      282.702      21.672      66.826
  H      285.822      23.293      73.506
  H      283.866      27.227      64.427
  H      285.705      28.322      68.038
  H      284.452      26.485      69.136
  H      281.705      24.828      67.681
  H      283.996      23.442      66.630
  H      285.041      23.555      68.775
  H      282.290      22.884      69.936
  H      283.179      24.025      71.934
  H      284.070      22.529      71.617
  P      285.972      21.109      68.363
  C      287.373      21.283      66.185
  O      286.093      21.299      66.774
  O      286.448      19.812      68.940
  O      286.917      22.296      68.903
  H      287.789      21.926      69.141
  H      287.270      21.471      65.116
  H      287.850      20.303      66.329
  H      288.004      22.066      66.616
  H      288.925      24.841      72.304
  H      287.757      23.803      71.522
  H      287.838      23.869      73.266

 3  4  5  6  7  8  9  10  11  12  13  23  28  29  30  31  32 0
 6-311+G(2d,p)
 ****
 33  34 0
 6-311+G(2d,p)
 ****
 1  2  14  15  16  17  18  19  20  21  22  24  25  26  27 0
 3-21G
 ****
 35  36  37  38  39  40  41  42  43  44  45 0
 3-21G
 ****


