%nproc=1
%NoSave
%Mem=1900MB
#P OB98/GEN NMR

erre ene a

0 1
  C      650.371     298.733     380.684
  O      650.314     297.851     379.573
  P      649.757     296.373     379.822
  C      651.617     295.470     378.252
  O      650.239     295.481     378.581
  C      652.079     294.066     377.856
  O      651.968     293.194     379.015
  C      651.274     293.429     376.714
  O      652.187     292.633     375.959
  C      650.286     292.556     377.478
  O      649.668     291.558     376.686
  C      651.190     292.053     378.603
  N      651.473     289.419     382.984
  C      652.428     289.863     382.129
  N      652.275     290.557     380.982
  C      650.978     290.816     380.763
  C      649.896     290.418     381.522
  C      650.176     289.688     382.694
  N      649.204     289.244     383.555
  N      648.704     290.852     380.958
  C      649.078     291.492     379.867
  N      650.434     291.513     379.714
  O      648.184     296.528     379.577
  O      650.065     295.800     381.179
  H      649.015     291.961     376.080
  H      647.676     295.988     380.211
  H      653.452     289.605     382.403
  H      648.396     291.941     379.162
  H      651.884     291.272     378.262
  H      649.486     293.187     377.875
  H      650.793     294.160     376.055
  H      653.146     294.114     377.585
  H      652.199     295.794     379.121
  H      649.490     288.558     384.244
  H      648.241     289.272     383.220
  H      651.807     296.186     377.443
  P      651.977     292.502     374.372
  C      651.298     290.025     374.529
  O      652.271     290.951     374.073
  O      653.311     293.192     373.828
  O      650.706     293.073     373.841
  H      654.108     292.824     374.249
  H      651.570     289.020     374.175
  H      650.307     290.285     374.130
  H      651.277     290.010     375.622
  H      650.761     299.678     380.369
  H      651.007     298.317     381.437
  H      649.387     298.868     381.083

 3  4  5  6  7  8  9  10  11  12  22  25  29  30  31  32 0
 6-311+G(2d,p)
 ****
 33  36  37 0
 6-311+G(2d,p)
 ****
 1  2  13  14  15  16  17  18  19  20  21  23  24  26 0
 3-21G
 ****
 27  28  34  35  38  39  40  41  42  43  44  45  46  47  48 0
 3-21G
 ****


