%nproc=1
%NoSave
%Mem=1900MB
#P OB98/GEN NMR

erre ene a

0 1
  C       -2.748      53.175     410.162
  O       -3.709      52.454     409.416
  H       -2.376      54.000     409.550
  H       -1.908      52.527     410.429
  H       -3.207      53.584     411.067
  P       -4.342      51.159     410.118
  C       -2.282      49.718     409.542
  O       -3.069      50.291     410.581
  C       -1.592      48.447     410.035
  O       -0.737      47.946     408.974
  C       -0.713      48.666     411.272
  O       -0.790      47.511     412.111
  C        0.686      48.770     410.688
  O        1.696      48.459     411.647
  C        0.588      47.796     409.517
  N        5.351      46.732     408.056
  C        4.548      46.183     408.994
  N        3.278      46.515     409.305
  C        2.827      47.488     408.482
  C        3.526      48.142     407.486
  C        4.858      47.732     407.283
  N        5.695      48.305     406.355
  N        2.735      49.109     406.898
  C        1.575      49.035     407.528
  N        1.593      48.082     408.510
  O       -5.358      50.419     409.314
  O       -4.868      51.759     411.507
  H        2.568      48.496     411.202
  H       -4.198      52.331     411.927
  H        4.989      45.380     409.581
  H        0.710      49.655     407.322
  H        0.724      46.747     409.823
  H        0.866      49.790     410.333
  H       -0.988      49.556     411.840
  H       -2.353      47.678     410.216
  H       -1.528      50.437     409.203
  H        6.634      47.949     406.279
  H        5.345      49.049     405.768
  H       -2.950      49.491     408.701
  P       -1.682      47.573     413.444
  C        0.233      47.548     415.173
  O       -0.826      48.298     414.598
  O       -2.328      46.292     413.851
  O       -2.781      48.684     413.084
  H       -3.653      48.389     413.414
  H        0.721      48.136     415.922
  H        0.937      47.284     414.412
  H       -0.161      46.659     415.619

 6  7  8  9  10  11  12  13  14  15  25  28  32  33  34  35 0
 6-311+G(2d,p)
 ****
 36  39  40 0
 6-311+G(2d,p)
 ****
 1  2  3  4  5  16  17  18  19  20  21  22  23  24 0
 3-21G
 ****
 26  27  29  30  31  37  38  41  42  43  44  45  46  47 0
 3-21G
 ****
 48 0
 3-21G
 ****


