%nproc=1
%NoSave
%Mem=1900MB
#P OB98/GEN NMR

erre ene a

0 1
  C       85.176     140.873      20.334
  O       84.467     142.033      19.889
  P       82.891     142.061      20.198
  C       82.409     140.826      17.972
  O       82.206     140.862      19.377
  C       81.080     140.898      17.212
  O       80.322     139.662      17.364
  C       80.167     142.040      17.672
  O       79.463     142.507      16.513
  C       79.189     141.337      18.595
  O       78.008     142.109      18.795
  C       79.003     140.028      17.828
  N       74.891     137.173      18.487
  C       75.107     138.240      17.636
  N       74.096     138.562      16.802
  N       76.219     138.930      17.604
  C       77.157     138.468      18.467
  C       77.070     137.415      19.347
  C       75.822     136.681      19.394
  O       75.582     135.728      20.124
  N       78.248     137.234      20.036
  C       79.013     138.227      19.613
  N       78.421     138.965      18.625
  O       82.395     143.378      19.439
  O       82.567     142.102      21.655
  H       77.413     141.591      19.379
  H       82.287     144.111      20.074
  H       74.010     136.689      18.481
  H       80.008     138.437      19.967
  H       78.351     140.149      16.952
  H       79.653     141.155      19.572
  H       73.233     138.042      16.740
  H       80.687     142.869      18.159
  H       74.242     139.314      16.140
  H       81.303     141.013      16.144
  H       82.929     139.906      17.694
  H       83.073     141.648      17.686
  P       79.853     143.946      15.931
  C       77.625     144.979      16.748
  O       79.037     145.039      16.769
  O       79.136     143.963      14.498
  O       81.321     144.187      15.797
  H       79.714     144.408      13.849
  H       77.240     145.428      17.666
  H       77.262     143.949      16.680
  H       77.252     145.548      15.893
  H       86.210     140.966      20.075
  H       84.767     140.003      19.864
  H       85.081     140.783      21.396

 3  4  5  6  7  8  9  10  11  12  23  26  30  31 0
 6-311+G(2d,p)
 ****
 33  35  36  37  38 0
 6-311+G(2d,p)
 ****
 1  2  13  14  15  16  17  18  19  20  21  22  24  25 0
 3-21G
 ****
 27  28  29  32  34  39  40  41  42  43  44  45  46  47  48  49 0
 3-21G
 ****


