%nproc=1
%NoSave
%Mem=1900MB
#P OB98/GEN NMR

erre ene a

0 1
  C      108.588     293.752      59.641
  O      109.921     294.213      59.781
  P      110.349     295.516      58.945
  C      111.312     293.967      57.093
  O      111.535     295.071      57.959
  C      112.231     294.034      55.873
  O      111.968     292.882      55.022
  C      112.048     295.293      55.005
  O      113.343     295.629      54.490
  C      111.129     294.788      53.905
  O      111.099     295.620      52.755
  C      111.697     293.390      53.696
  N      109.545     292.372      49.170
  C      110.476     293.280      49.542
  N      111.010     293.487      50.764
  C      110.491     292.625      51.659
  C      109.522     291.660      51.433
  C      109.043     291.546      50.117
  N      108.084     290.624      49.742
  N      109.218     290.987      52.600
  C      109.989     291.539      53.514
  N      110.789     292.515      52.990
  O      111.095     296.414      60.035
  O      109.217     296.249      58.292
  H      111.033     296.556      53.023
  H      110.889     297.362      59.917
  H      110.844     293.927      48.747
  H      109.998     291.276      54.563
  H      112.647     293.407      53.144
  H      110.105     294.741      54.290
  H      111.652     296.150      55.559
  H      113.268     293.957      56.215
  H      110.273     293.987      56.744
  H      107.666     290.756      48.834
  H      107.573     290.163      50.488
  H      111.460     293.035      57.649
  P      114.253     296.672      55.299
  C      114.244     298.389      53.387
  O      115.025     297.486      54.151
  O      115.410     295.708      55.843
  O      113.558     297.465      56.352
  H      115.790     295.164      55.127
  H      114.908     298.940      52.716
  H      113.731     299.098      54.043
  H      113.516     297.837      52.788
  H      108.445     292.884      60.250
  H      108.402     293.504      58.617
  H      107.911     294.520      59.950

 3  4  5  6  7  8  9  10  11  12  22  25  29  30  31  32 0
 6-311+G(2d,p)
 ****
 33  36  37 0
 6-311+G(2d,p)
 ****
 1  2  13  14  15  16  17  18  19  20  21  23  24  26 0
 3-21G
 ****
 27  28  34  35  38  39  40  41  42  43  44  45  46  47  48 0
 3-21G
 ****


