%nproc=1
%NoSave
%Mem=1900MB
#P OB98/GEN NMR

erre ene a

0 1
  C     -191.017      18.351     -82.267
  O     -190.544      19.260     -81.287
  P     -189.842      20.611     -81.785
  C     -191.886      22.163     -81.390
  O     -190.989      21.592     -82.332
  C     -192.780      23.211     -82.055
  O     -193.814      23.628     -81.126
  C     -192.026      24.471     -82.493
  O     -192.625      24.990     -83.690
  C     -192.313      25.457     -81.380
  O     -192.167      26.806     -81.824
  C     -193.742      25.063     -81.009
  N     -196.027      28.668     -78.304
  C     -196.081      28.424     -79.661
  N     -196.770      29.315     -80.406
  N     -195.517      27.394     -80.236
  C     -194.857      26.590     -79.366
  C     -194.745      26.721     -78.000
  C     -195.365      27.870     -77.380
  O     -195.331      28.159     -76.188
  N     -194.027      25.689     -77.456
  C     -193.665      24.956     -78.490
  N     -194.113      25.483     -79.674
  O     -189.079      20.147     -83.114
  O     -188.892      21.216     -80.808
  H     -192.171      27.369     -81.028
  H     -188.122      20.081     -82.941
  H     -196.470      29.482     -77.909
  H     -193.063      24.059     -78.442
  H     -194.471      25.488     -81.709
  H     -191.620      25.295     -80.546
  H     -197.171      30.163     -80.033
  H     -190.954      24.325     -82.657
  H     -196.787      29.183     -81.409
  H     -193.285      22.747     -82.910
  H     -191.311      22.639     -80.594
  H     -192.499      21.374     -80.944
  P     -191.605      25.444     -84.845
  C     -191.211      22.914     -85.312
  O     -190.643      24.189     -85.095
  O     -190.663      26.507     -84.109
  O     -192.267      26.010     -86.057
  H     -190.286      27.130     -84.757
  H     -190.948      22.576     -86.318
  H     -192.300      22.922     -85.213
  H     -190.797      22.213     -84.583
  H     -191.457      17.504     -81.784
  H     -190.200      18.029     -82.878
  H     -191.751      18.835     -82.878

 3  4  5  6  7  8  9  10  11  12  23  26  30  31 0
 6-311+G(2d,p)
 ****
 33  35  36  37  38 0
 6-311+G(2d,p)
 ****
 1  2  13  14  15  16  17  18  19  20  21  22  24  25 0
 3-21G
 ****
 27  28  29  32  34  39  40  41  42  43  44  45  46  47  48  49 0
 3-21G
 ****


