%nproc=1
%NoSave
%Mem=1900MB
#P OB98/GEN NMR

erre ene a

0 1
  C      210.141    -762.039     358.332
  O      210.362    -763.164     357.512
  H      209.645    -761.260     357.741
  H      211.091    -761.640     358.705
  H      209.492    -762.301     359.173
  P      211.180    -764.403     358.115
  C      209.719    -766.214     356.992
  O      211.002    -765.620     357.080
  C      209.552    -766.948     355.651
  O      209.562    -765.967     354.567
  C      210.680    -767.956     355.355
  O      210.117    -769.003     354.554
  C      211.637    -767.105     354.533
  O      212.593    -767.903     353.873
  C      210.641    -766.320     353.674
  N      211.245    -765.158     353.052
  C      212.313    -765.403     352.179
  O      212.704    -766.550     351.985
  N      212.921    -764.329     351.573
  C      212.557    -763.123     351.864
  N      213.215    -762.112     351.244
  C      211.470    -762.821     352.826
  C      210.861    -763.873     353.369
  O      210.881    -764.742     359.540
  O      212.717    -763.985     357.921
  H      213.217    -767.337     353.350
  H      213.092    -763.713     358.778
  H      211.207    -761.796     353.044
  H      210.053    -763.756     354.086
  H      210.224    -766.961     352.880
  H      212.199    -766.424     355.183
  H      211.132    -768.378     356.260
  H      208.573    -767.434     355.631
  H      213.963    -762.363     350.600
  H      208.978    -765.410     357.060
  H      213.026    -761.133     351.412
  H      209.558    -766.915     357.811
  P      210.171    -770.552     354.971
  C      208.327    -770.445     356.783
  O      208.740    -771.002     355.536
  O      211.317    -770.899     355.877
  O      210.300    -771.357     353.585
  H      210.806    -772.173     353.734
  H      207.361    -770.826     357.042
  H      208.279    -769.379     356.699
  H      209.031    -770.712     357.543

 6  7  8  9  10  11  12  13  14  15  16  26  30  31  32  33  35 0
 6-311+G(2d,p)
 ****
 37  38 0
 6-311+G(2d,p)
 ****
 1  2  3  4  5  17  18  19  20  21  22  23  24  25 0
 3-21G
 ****
 27  28  29  34  36  39  40  41  42  43  44  45  46 0
 3-21G
 ****


