%nproc=1
%NoSave
%Mem=1900MB
#P OB98/GEN NMR

erre ene a

0 1
  C      -59.318    -146.683     -30.454
  O      -58.533    -145.872     -29.605
  H      -60.321    -146.773     -30.026
  H      -58.879    -147.680     -30.534
  H      -59.399    -146.230     -31.444
  P      -57.029    -145.577     -30.080
  C      -57.737    -143.576     -31.585
  O      -57.142    -144.868     -31.515
  C      -56.757    -142.589     -32.212
  O      -55.589    -142.469     -31.368
  C      -56.231    -143.017     -33.578
  O      -57.163    -142.749     -34.612
  C      -54.957    -142.183     -33.678
  O      -55.232    -140.853     -34.135
  C      -54.470    -142.149     -32.224
  N      -49.814    -142.644     -30.209
  C      -50.682    -141.610     -30.233
  N      -51.918    -141.565     -30.776
  C      -52.233    -142.748     -31.333
  C      -51.447    -143.887     -31.391
  C      -50.180    -143.809     -30.793
  N      -49.279    -144.851     -30.801
  N      -52.097    -144.887     -32.088
  C      -53.259    -144.365     -32.431
  N      -53.382    -143.077     -31.990
  O      -56.469    -147.038     -30.421
  O      -56.174    -144.868     -29.083
  H      -55.785    -140.941     -34.937
  H      -55.994    -147.395     -29.648
  H      -50.339    -140.697     -29.756
  H      -54.028    -144.873     -33.000
  H      -54.114    -141.154     -31.931
  H      -54.248    -142.627     -34.377
  H      -55.961    -144.078     -33.566
  H      -57.240    -141.609     -32.271
  H      -57.988    -143.240     -30.570
  H      -58.654    -143.640     -32.177
  H      -48.380    -144.715     -30.373
  H      -49.502    -145.685     -31.325
  P      -57.031    -143.558     -35.987
  C      -58.772    -145.466     -35.673
  O      -57.401    -145.091     -35.686
  O      -55.451    -143.594     -36.245
  O      -57.769    -142.957     -37.137
  H      -55.198    -142.913     -36.897
  H      -58.854    -146.511     -35.460
  H      -59.207    -145.262     -36.629
  H      -59.288    -144.907     -34.920

 6  7  8  9  10  11  12  13  14  15  25  28  32  33  34  35 0
 6-311+G(2d,p)
 ****
 36  37  40 0
 6-311+G(2d,p)
 ****
 1  2  3  4  5  16  17  18  19  20  21  22  23  24 0
 3-21G
 ****
 26  27  29  30  31  38  39 41  42  43  44  45  46  47  48 0
 3-21G
 ****


