%nproc=1
%NoSave
%Mem=1900MB
#P OB98/GEN NMR

erre ene a

0 1
  C     -140.013    -387.295    -320.430
  O     -138.781    -387.426    -319.749
  H     -139.805    -387.126    -321.489
  H     -140.574    -386.442    -320.043
  H     -140.606    -388.209    -320.332
  P     -138.808    -387.682    -318.163
  C     -137.587    -385.418    -317.836
  O     -138.728    -386.206    -317.527
  C     -137.979    -383.948    -317.967
  O     -138.807    -383.726    -319.132
  C     -138.804    -383.400    -316.805
  O     -138.053    -383.184    -315.621
  C     -139.292    -382.102    -317.423
  O     -138.223    -381.139    -317.437
  C     -139.645    -382.571    -318.856
  N     -141.058    -382.916    -319.004
  C     -141.985    -381.930    -318.644
  O     -141.609    -380.842    -318.215
  N     -143.326    -382.218    -318.742
  C     -143.711    -383.389    -319.146
  N     -145.048    -383.621    -319.219
  C     -142.767    -384.464    -319.514
  C     -141.473    -384.160    -319.425
  O     -137.808    -388.662    -317.639
  O     -140.326    -388.085    -317.848
  H     -138.027    -380.919    -316.506
  H     -140.393    -388.266    -316.878
  H     -143.134    -385.435    -319.816
  H     -140.718    -384.901    -319.672
  H     -139.388    -381.800    -319.595
  H     -140.127    -381.651    -316.880
  H     -139.672    -384.037    -316.607
  H     -137.055    -383.374    -318.111
  H     -145.670    -382.866    -318.958
  H     -137.157    -385.793    -318.770
  H     -145.434    -384.527    -319.447
  H     -136.841    -385.507    -317.040
  P     -138.473    -384.042    -314.329
  C     -139.005    -381.819    -313.072
  O     -139.445    -383.107    -313.464
  O     -137.127    -384.102    -313.480
  O     -139.033    -385.403    -314.622
  H     -136.660    -384.949    -313.622
  H     -139.774    -381.337    -312.505
  H     -138.785    -381.237    -313.942
  H     -138.124    -381.910    -312.472

 6  7  8  9  10  11  12  13  14  15  16  26  30  31  32  33  35 0
 6-311+G(2d,p)
 ****
 37  38 0
 6-311+G(2d,p)
 ****
 1  2  3  4  5  17  18  19  20  21  22  23  24  25 0
 3-21G
 ****
 27  28  29  34  36  39  40  41  42  43  44  45  46 0
 3-21G
 ****


