%nproc=1
%NoSave
%Mem=1900MB
#P OB98/GEN NMR

erre ene a

0 1
  C      150.786     455.659     456.482
  O      152.127     455.902     456.104
  H      150.413     454.806     455.921
  H      150.165     456.533     456.256
  H      150.737     455.435     457.550
  P      152.853     457.165     456.778
  C      152.615     459.114     455.104
  O      152.042     458.435     456.219
  C      151.535     459.471     454.086
  O      150.656     460.468     454.673
  C      152.091     460.061     452.783
  O      151.281     459.625     451.688
  C      151.902     461.553     452.969
  O      151.856     462.256     451.729
  C      150.601     461.593     453.774
  N      148.378     466.170     453.727
  C      148.201     465.070     452.962
  N      148.826     463.877     453.060
  C      149.667     463.867     454.108
  C      149.949     464.905     454.981
  C      149.262     466.112     454.746
  N      149.455     467.247     455.501
  N      150.904     464.522     455.897
  C      151.185     463.270     455.602
  N      150.475     462.838     454.516
  O      154.333     457.229     456.610
  O      152.340     457.068     458.294
  H      151.210     461.816     451.141
  H      151.379     456.910     458.333
  H      147.474     465.160     452.162
  H      151.898     462.633     456.120
  H      149.713     461.498     453.144
  H      152.732     461.964     453.556
  H      153.133     459.794     452.597
  H      150.922     458.581     453.891
  H      153.374     458.482     454.626
  H      148.920     468.072     455.266
  H      150.104     467.232     456.271
  H      153.101     460.025     455.479
  P      151.758     458.350     450.835
  C      153.267     459.344     448.992
  O      153.217     458.651     450.231
  O      150.771     457.827     449.846
  O      152.072     457.258     451.965
  H      151.732     456.388     451.670
  H      154.287     459.481     448.701
  H      152.795     460.298     449.098
  H      152.756     458.775     448.244

 6  7  8  9  10  11  12  13  14  15  25  28  32  33  34  35 0
 6-311+G(2d,p)
 ****
 36  39  40 0
 6-311+G(2d,p)
 ****
 1  2  3  4  5  16  17  18  19  20  21  22  23  24 0
 3-21G
 ****
 26  27  29  30  31  37  38  41  42  43  44  45  46  47 0
 3-21G
 ****
 48 0
 3-21G
 ****


