%nproc=1
%NoSave
%Mem=1900MB
#P OB98/GEN NMR

erre ene a

0 1
  C       12.788     -35.453     -87.368
  O       13.848     -35.665     -88.307
  P       13.599     -35.600     -89.892
  C       12.318     -36.834     -91.744
  O       12.694     -36.840     -90.370
  C       10.868     -37.281     -91.974
  O       10.693     -38.682     -91.629
  C        9.815     -36.498     -91.178
  O        8.637     -36.485     -91.988
  C        9.616     -37.381     -89.959
  O        8.404     -37.123     -89.264
  C        9.687     -38.763     -90.602
  N        7.822     -41.858     -86.974
  C        7.209     -41.066     -87.879
  N        7.771     -40.301     -88.835
  C        9.107     -40.438     -88.837
  C        9.871     -41.216     -87.982
  C        9.173     -41.945     -87.003
  N        9.793     -42.717     -86.048
  N       11.216     -41.079     -88.264
  C       11.260     -40.224     -89.266
  N       10.012     -39.810     -89.651
  O       14.842     -35.410     -90.700
  O       12.627     -34.341     -90.085
  H        8.326     -37.767     -88.537
  H       12.953     -33.797     -90.828
  H        6.125     -41.036     -87.822
  H       12.163     -39.854     -89.735
  H        8.739     -39.028     -91.083
  H       10.442     -37.218     -89.257
  H       10.127     -35.483     -90.924
  H       10.666     -37.200     -93.050
  H       12.993     -37.500     -92.292
  H        9.214     -43.126     -85.332
  H       10.799     -42.692     -85.974
  H       12.456     -35.821     -92.140
  P        8.211     -35.196     -92.837
  C        6.419     -33.382     -92.640
  O        7.119     -34.413     -91.968
  O        7.806     -35.478     -94.245
  O        9.491     -34.233     -92.776
  H        9.440     -33.579     -93.498
  H        7.061     -32.502     -92.731
  H        5.531     -33.118     -92.060
  H        6.106     -33.707     -93.637
  H       13.170     -35.541     -86.373
  H       12.023     -36.185     -87.522
  H       12.378     -34.475     -87.508

 3  4  5  6  7  8  9  10  11  12  22  25  29  30  31  32 0
 6-311+G(2d,p)
 ****
 33  36  37 0
 6-311+G(2d,p)
 ****
 1  2  13  14  15  16  17  18  19  20  21  23  24  26 0
 3-21G
 ****
 27  28  34  35  38  39  40  41  42  43  44  45  46  47  48 0
 3-21G
 ****


