%nproc=1
%NoSave
%Mem=1900MB
#P OB98/GEN NMR

erre ene a

0 1
  C     1111.724     639.906    -204.320
  O     1110.410     639.613    -203.879
  H     1111.667     640.579    -205.177
  H     1112.238     638.983    -204.627
  H     1112.291     640.398    -203.523
  P     1110.222     638.552    -202.698
  C     1107.701     638.891    -202.188
  O     1108.681     638.083    -202.828
  C     1106.384     638.829    -202.962
  O     1106.550     639.347    -204.304
  C     1105.819     637.409    -203.135
  O     1105.241     636.885    -201.958
  C     1104.769     637.697    -204.213
  O     1103.628     638.333    -203.627
  C     1105.540     638.696    -205.137
  N     1106.194     638.027    -206.275
  C     1105.378     637.198    -207.052
  O     1104.187     637.043    -206.776
  N     1105.934     636.521    -208.120
  C     1107.210     636.653    -208.356
  N     1107.722     635.899    -209.392
  C     1108.102     637.526    -207.569
  C     1107.539     638.182    -206.548
  O     1110.650     638.984    -201.332
  O     1110.990     637.230    -203.212
  H     1103.011     638.551    -204.334
  H     1110.901     636.535    -202.511
  H     1109.154     637.594    -207.809
  H     1108.130     638.821    -205.922
  H     1104.867     639.470    -205.508
  H     1104.415     636.793    -204.726
  H     1106.578     636.751    -203.550
  H     1105.666     639.485    -202.441
  H     1107.090     635.296    -209.880
  H     1108.081     639.914    -202.133
  H     1108.723     635.752    -209.453
  H     1107.515     638.523    -201.178
  P     1105.315     635.282    -201.754
  C     1105.467     635.544    -199.177
  O     1104.765     634.991    -200.284
  O     1106.876     635.006    -201.648
  O     1104.621     634.468    -202.824
  H     1107.251     634.760    -202.541
  H     1104.979     635.262    -198.268
  H     1105.479     636.611    -199.259
  H     1106.472     635.176    -199.172

 6  7  8  9  10  11  12  13  14  15  16  26  30  31  32  33  35 0
 6-311+G(2d,p)
 ****
 37  38 0
 6-311+G(2d,p)
 ****
 1  2  3  4  5  17  18  19  20  21  22  23  24  25 0
 3-21G
 ****
 27  28  29  34  36  39  40  41  42  43  44  45  46 0
 3-21G
 ****


