%nproc=1
%NoSave
%Mem=1900MB
#P OB98/GEN NMR

erre ene a

0 1
  C      890.164    -297.200     650.128
  O      890.393    -297.856     648.890
  H      889.168    -297.505     650.504
  H      890.155    -296.116     649.983
  H      890.920    -297.485     650.854
  P      891.786    -297.514     648.154
  C      893.372    -299.275     649.232
  O      892.609    -298.902     648.087
  C      893.220    -300.775     649.512
  O      891.940    -301.042     650.157
  C      893.267    -301.650     648.269
  O      894.608    -301.923     647.890
  C      892.527    -302.911     648.745
  O      893.397    -303.746     649.529
  C      891.419    -302.300     649.624
  N      887.214    -304.496     647.858
  C      888.275    -305.017     648.566
  N      888.218    -306.353     648.824
  N      889.296    -304.333     649.008
  C      889.209    -303.027     648.690
  C      888.215    -302.359     647.973
  C      887.090    -303.141     647.527
  O      886.097    -302.710     646.960
  N      888.495    -301.022     647.844
  C      889.691    -300.870     648.428
  N      890.176    -302.067     648.919
  O      892.595    -296.672     649.271
  O      891.668    -296.768     646.873
  H      893.820    -303.203     650.197
  H      893.175    -296.036     648.810
  H      886.467    -305.079     647.579
  H      890.219    -299.932     648.509
  H      891.198    -302.947     650.482
  H      892.158    -303.490     647.906
  H      887.675    -306.965     648.233
  H      892.713    -301.200     647.431
  H      889.015    -306.755     649.332
  H      893.995    -301.071     650.221
  H      893.010    -298.717     650.102
  H      894.420    -299.029     649.069
  P      894.932    -302.001     646.305
  C      896.578    -299.999     646.535
  O      896.373    -301.349     646.085
  O      893.924    -300.932     645.667
  O      894.747    -303.367     645.699
  H      893.848    -301.084     644.706
  H      897.583    -299.701     646.322
  H      896.406    -299.945     647.590
  H      895.897    -299.347     646.029

 6  7  8  9  10  11  12  13  14  15  26  29  33  34 0
 6-311+G(2d,p)
 ****
 36  38  39  40  41 0
 6-311+G(2d,p)
 ****
 1  2  3  4  5  16  17  18  19  20  21  22  23  24  25 0
 3-21G
 ****
 27  28  30  31  32  35  37  42  43  44  45  46  47 0
 3-21G
 ****
 48  49 0
 3-21G
 ****


