%nproc=1
%NoSave
%Mem=1900MB
#P OB98/GEN NMR

erre ene a

0 1
  C       -5.632    -280.607     449.128
  O       -6.664    -281.358     448.528
  H       -6.015    -279.611     449.365
  H       -4.803    -280.502     448.420
  H       -5.278    -281.079     450.048
  P       -6.530    -282.950     448.478
  C       -6.557    -284.769     446.650
  O       -6.410    -283.387     446.933
  C       -6.796    -285.023     445.155
  O       -8.141    -284.632     444.799
  C       -5.866    -284.197     444.272
  O       -4.586    -284.756     444.045
  C       -6.668    -284.116     442.965
  O       -6.430    -285.273     442.146
  C       -8.114    -284.094     443.460
  N      -11.164    -280.744     441.094
  C      -10.793    -282.012     440.691
  N      -11.245    -282.421     439.482
  N      -10.032    -282.801     441.411
  C       -9.583    -282.227     442.555
  C       -9.871    -280.968     443.048
  C      -10.761    -280.129     442.268
  O      -11.115    -278.992     442.575
  N       -9.224    -280.738     444.234
  C       -8.491    -281.816     444.426
  N       -8.697    -282.762     443.444
  O       -8.000    -283.467     448.870
  O       -5.491    -283.538     449.392
  H       -5.465    -285.412     442.079
  H       -7.943    -284.354     449.265
  H      -11.780    -280.191     440.512
  H       -7.825    -281.980     445.269
  H       -8.763    -284.738     442.843
  H       -6.384    -283.247     442.372
  H      -11.734    -281.805     438.847
  H       -5.759    -283.182     444.671
  H      -10.782    -283.217     439.041
  H       -6.709    -286.094     444.946
  H       -7.404    -285.129     447.229
  H       -5.673    -285.326     446.987
  P       -3.449    -283.900     443.307
  C       -2.932    -283.266     440.827
  O       -3.800    -283.919     441.737
  O       -2.162    -284.849     443.422
  O       -3.205    -282.553     443.887
  H       -1.616    -284.568     444.187
  H       -3.311    -283.375     439.832
  H       -1.957    -283.703     440.887
  H       -2.873    -282.227     441.074

 6  7  8  9  10  11  12  13  14  15  26  29  33  34 0
 6-311+G(2d,p)
 ****
 36  38  39  40  41 0
 6-311+G(2d,p)
 ****
 1  2  3  4  5  16  17  18  19  20  21  22  23  24  25 0
 3-21G
 ****
 27  28  30  31  32  35  37  42  43  44  45  46  47 0
 3-21G
 ****
 48  49 0
 3-21G
 ****


