%nproc=1
%NoSave
%Mem=1900MB
#P OB98/GEN NMR

erre ene a

0 1
  C      176.726     156.658    -577.188
  O      175.956     156.528    -575.991
  P      174.874     157.671    -575.684
  C      172.795     156.243    -576.335
  O      173.579     157.405    -576.589
  C      171.597     156.202    -577.287
  O      172.019     156.078    -578.656
  C      170.682     155.009    -577.045
  O      169.856     155.236    -575.920
  C      169.924     154.921    -578.362
  O      168.723     155.711    -578.335
  C      170.930     155.491    -579.386
  N      171.404     154.482    -580.328
  C      170.757     154.450    -581.563
  O      169.826     155.228    -581.802
  N      171.162     153.524    -582.486
  C      172.111     152.689    -582.196
  N      172.462     151.786    -583.149
  C      172.799     152.674    -580.888
  C      172.397     153.593    -580.008
  O      175.522     158.979    -576.339
  O      174.597     157.867    -574.227
  H      168.260     155.510    -579.177
  H      175.279     159.772    -575.829
  H      173.575     151.954    -580.687
  H      172.850     153.652    -579.023
  H      170.468     156.302    -579.965
  H      169.621     153.891    -578.578
  H      171.284     154.100    -576.902
  H      171.029     157.137    -577.174
  H      171.966     151.825    -584.033
  H      172.449     156.240    -575.303
  H      173.179     151.090    -583.023
  H      173.425     155.356    -576.459
  P      170.400     154.763    -574.490
  C      170.365     157.210    -573.710
  O      171.150     156.046    -573.889
  O      171.629     153.821    -574.890
  O      169.437     154.072    -573.586
  H      171.991     153.383    -574.099
  H      170.932     157.926    -573.110
  H      169.435     156.974    -573.187
  H      170.149     157.661    -574.681
  H      177.404     155.834    -577.268
  H      177.280     157.573    -577.158
  H      176.071     156.665    -578.034

 3  4  5  6  7  8  9  10  11  12  13  21  23  27  28  29  30  32 0
 6-311+G(2d,p)
 ****
 34  35 0
 6-311+G(2d,p)
 ****
 1  2  14  15  16  17  18  19  20  22  24  25  26 0
 3-21G
 ****
 31  33  36  37  38  39  40  41  42  43  44  45  46 0
 3-21G
 ****


