%nproc=1
%NoSave
%Mem=1900MB
#P OB98/GEN NMR

erre ene a

0 1
  C     -640.877     317.744    -781.353
  O     -640.652     316.384    -781.022
  P     -640.064     315.970    -779.574
  C     -637.592     315.202    -779.747
  O     -638.493     316.305    -779.670
  C     -637.625     314.593    -781.138
  O     -637.706     315.657    -782.124
  C     -636.382     313.783    -781.505
  O     -636.404     312.520    -780.884
  C     -636.483     313.780    -783.030
  O     -637.433     312.787    -783.472
  C     -637.027     315.197    -783.314
  N     -635.978     316.130    -783.728
  C     -635.884     316.383    -785.108
  O     -636.634     315.834    -785.919
  N     -634.944     317.277    -785.549
  C     -634.156     317.845    -784.693
  N     -633.271     318.775    -785.166
  C     -634.191     317.565    -783.245
  C     -635.131     316.721    -782.835
  O     -640.381     314.575    -779.147
  O     -640.603     317.108    -778.585
  H     -637.567     312.935    -784.435
  H     -641.484     316.884    -778.195
  H     -633.514     318.068    -782.564
  H     -635.237     316.484    -781.779
  H     -637.799     315.136    -784.114
  H     -635.525     313.569    -783.536
  H     -635.470     314.317    -781.198
  H     -638.536     313.980    -781.228
  H     -633.416     319.059    -786.135
  H     -637.914     314.442    -779.023
  H     -632.847     319.461    -784.552
  H     -636.582     315.550    -779.468
  P     -635.005     311.735    -780.723
  C     -634.925     309.626    -782.244
  O     -634.717     311.030    -782.142
  O     -635.365     310.531    -779.728
  O     -633.895     312.600    -780.199
  H     -635.068     310.727    -778.834
  H     -634.924     309.351    -783.300
  H     -635.878     309.342    -781.798
  H     -634.086     309.108    -781.744
  H     -641.265     317.809    -782.348
  H     -639.954     318.283    -781.294
  H     -641.581     318.166    -780.667

 3  4  5  6  7  8  9  10  11  12  13  23  27  28  29  30  32 0
 6-311+G(2d,p)
 ****
 34  35 0
 6-311+G(2d,p)
 ****
 1  2  14  15  16  17  18  19  20  21  22  24  25  26 0
 3-21G
 ****
 31  33  36  37  38  39  40  41  42  43  44  45  46 0
 3-21G
 ****


