%nproc=1
%NoSave
%Mem=1900MB
#P OB98/GEN NMR

erre ene a

0 1
  C     -798.300    -241.123     299.448
  O     -798.419    -239.829     300.004
  P     -799.339    -238.775     299.230
  C     -800.474    -237.890     301.410
  O     -799.684    -237.591     300.262
  C     -800.734    -236.610     302.213
  O     -799.525    -236.200     302.898
  C     -801.132    -235.426     301.354
  O     -802.502    -235.492     300.972
  C     -800.827    -234.246     302.266
  O     -801.891    -234.015     303.188
  C     -799.555    -234.752     303.009
  N     -798.332    -234.148     302.506
  C     -797.870    -233.033     303.206
  O     -798.470    -232.566     304.179
  N     -796.723    -232.455     302.729
  C     -796.038    -232.832     301.597
  O     -795.049    -232.236     301.182
  C     -796.591    -233.996     300.873
  C     -797.698    -234.581     301.352
  O     -800.732    -239.527     299.037
  O     -798.773    -238.295     297.929
  H     -801.602    -233.279     303.772
  H     -801.129    -239.273     298.176
  H     -796.365    -231.664     303.233
  H     -796.078    -234.326     299.994
  H     -798.122    -235.427     300.833
  H     -799.648    -234.532     304.083
  H     -800.663    -233.318     301.720
  H     -800.495    -235.370     300.462
  H     -801.502    -236.822     302.963
  H     -799.944    -238.618     302.040
  H     -801.420    -238.342     301.084
  P     -802.858    -235.208     299.431
  C     -804.984    -236.744     299.468
  O     -804.430    -235.446     299.316
  O     -802.190    -236.496     298.741
  O     -802.326    -233.895     298.931
  H     -802.218    -237.283     299.304
  H     -804.419    -237.315     300.228
  H     -804.946    -237.272     298.522
  H     -806.010    -236.655     299.795
  H     -797.660    -241.719     300.065
  H     -797.883    -241.052     298.465
  H     -799.267    -241.578     299.393

 3  4  5  6  7  8  9  10  11  12  13  23  28  29  30  31  32 0
 6-311+G(2d,p)
 ****
 33  34 0
 6-311+G(2d,p)
 ****
 1  2  14  15  16  17  18  19  20  21  22  24  25  26 0
 3-21G
 ****
 27  35  36  37  38  39  40  41  42  43  44  45 0
 3-21G
 ****


