%nproc=1
%NoSave
%Mem=1900MB
#P OB98/GEN NMR

erre ene a

0 1
  C     -431.069     313.611      30.837
  O     -430.644     312.565      31.688
  H     -430.491     313.569      29.911
  H     -430.887     314.573      31.321
  H     -432.131     313.508      30.596
  P     -431.574     312.238      32.956
  C     -433.642     311.250      31.732
  O     -433.094     312.350      32.445
  C     -434.688     310.538      32.584
  O     -435.679     311.477      33.061
  C     -435.456     309.441      31.849
  O     -434.735     308.215      31.839
  C     -436.696     309.335      32.725
  O     -436.388     308.596      33.924
  C     -436.969     310.805      33.067
  N     -441.732     311.148      31.352
  C     -441.183     310.271      32.263
  N     -442.018     309.351      32.792
  N     -439.927     310.290      32.629
  C     -439.202     311.251      32.003
  C     -439.632     312.171      31.071
  C     -441.025     312.152      30.694
  O     -441.564     312.911      29.893
  N     -438.608     312.987      30.661
  C     -437.560     312.544      31.322
  N     -437.864     311.491      32.146
  O     -431.385     313.533      33.878
  O     -431.227     310.989      33.695
  H     -437.175     308.640      34.497
  H     -430.773     313.314      34.606
  H     -442.704     311.083      31.097
  H     -436.561     312.955      31.247
  H     -437.396     310.923      34.074
  H     -437.515     308.805      32.228
  H     -442.990     309.265      32.536
  H     -435.745     309.753      30.837
  H     -441.636     308.701      33.467
  H     -434.179     310.128      33.465
  H     -432.835     310.553      31.479
  H     -434.103     311.621      30.808
  P     -434.975     307.204      30.620
  C     -432.629     307.556      29.557
  O     -434.037     307.700      29.408
  O     -436.449     307.591      30.131
  O     -434.873     305.761      30.957
  H     -437.066     306.857      30.326
  H     -432.138     307.925      28.681
  H     -432.389     306.522      29.692
  H     -432.302     308.113      30.410

 6  7  8  9  10  11  12  13  14  15  26  29  33  34 0
 6-311+G(2d,p)
 ****
 36  38  39  40  41 0
 6-311+G(2d,p)
 ****
 1  2  3  4  5  16  17  18  19  20  21  22  23  24  25 0
 3-21G
 ****
 27  28  30  31  32  35  37  42  43  44  45  46  47 0
 3-21G
 ****
 48  49 0
 3-21G
 ****


