%nproc=1
%NoSave
%Mem=1900MB
#P OB98/GEN NMR

erre ene a

0 1
  C      138.177     -81.256      28.951
  O      139.573     -81.005      28.940
  P      140.508     -81.577      27.765
  C      139.826     -80.193      25.692
  O      139.645     -81.396      26.427
  C      140.255     -80.517      24.264
  O      141.560     -81.126      24.276
  C      139.345     -81.501      23.539
  O      138.149     -80.871      23.107
  C      140.270     -81.985      22.429
  O      140.317     -81.023      21.362
  C      141.634     -82.031      23.150
  N      142.003     -83.376      23.578
  C      143.359     -83.707      23.492
  O      144.186     -82.893      23.086
  N      143.759     -84.953      23.908
  C      142.882     -85.803      24.346
  N      143.343     -86.996      24.808
  C      141.437     -85.513      24.399
  C      141.073     -84.295      24.010
  O      141.026     -82.955      27.993
  O      141.651     -80.478      27.592
  H      140.964     -81.356      20.711
  H      142.433     -80.623      28.180
  H      140.743     -86.259      24.760
  H      140.034     -83.998      24.037
  H      142.422     -81.640      22.495
  H      139.972     -82.947      21.999
  H      139.090     -82.341      24.196
  H      140.321     -79.574      23.703
  H      144.347     -87.082      24.915
  H      140.611     -79.603      26.176
  H      142.783     -87.580      25.415
  H      138.895     -79.619      25.704
  P      136.815     -81.758      23.070
  C      136.961     -82.178      25.624
  O      136.911     -82.750      24.330
  O      137.038     -82.703      21.799
  O      135.552     -80.968      22.972
  H      136.534     -82.369      21.034
  H      136.786     -82.968      26.358
  H      136.190     -81.412      25.741
  H      137.949     -81.746      25.803
  H      137.738     -80.793      29.810
  H      138.005     -82.311      28.988
  H      137.735     -80.853      28.064

 3  4  5  6  7  8  9  10  11  12  13  23  27  28  29  30  32 0
 6-311+G(2d,p)
 ****
 34  35 0
 6-311+G(2d,p)
 ****
 1  2  14  15  16  17  18  19  20  21  22  24  25  26 0
 3-21G
 ****
 31  33  36  37  38  39  40  41  42  43  44  45  46 0
 3-21G
 ****


