%nproc=1
%NoSave
%Mem=1900MB
#P OB98/GEN NMR

erre ene a

0 1
  C      472.762     -11.122    -125.606
  O      473.034     -11.044    -124.223
  H      473.709     -11.173    -126.145
  H      472.217     -10.235    -125.934
  H      472.181     -12.024    -125.828
  P      471.769     -10.986    -123.226
  C      472.561     -13.027    -121.816
  O      472.294     -11.628    -121.848
  C      473.507     -13.361    -120.659
  O      474.870     -13.090    -121.068
  C      473.227     -12.554    -119.386
  O      473.320     -13.420    -118.249
  C      474.332     -11.510    -119.355
  O      474.614     -11.067    -118.036
  C      475.476     -12.248    -120.067
  N      476.434     -11.309    -120.674
  C      477.384     -10.752    -119.816
  O      477.394     -11.035    -118.615
  N      478.275      -9.841    -120.330
  C      478.185      -9.469    -121.572
  N      479.081      -8.540    -122.012
  C      477.159      -9.996    -122.497
  C      476.326     -10.905    -121.986
  O      470.796     -12.107    -123.823
  O      471.131      -9.643    -123.086
  H      474.942     -11.831    -117.518
  H      469.888     -12.041    -123.437
  H      477.113      -9.649    -123.519
  H      475.542     -11.352    -122.593
  H      476.019     -12.889    -119.364
  H      474.022     -10.640    -119.947
  H      472.252     -12.079    -119.395
  H      473.449     -14.437    -120.463
  H      479.754      -8.197    -121.347
  H      473.018     -13.323    -122.768
  H      479.081      -8.167    -122.949
  H      471.624     -13.570    -121.680
  P      472.244     -13.150    -117.081
  C      471.821     -15.611    -116.388
  O      472.365     -14.354    -116.020
  O      470.833     -13.405    -117.796
  O      472.339     -11.775    -116.483
  H      470.426     -12.559    -118.060
  H      471.972     -16.311    -115.593
  H      472.308     -15.965    -117.273
  H      470.773     -15.505    -116.576

 6  7  8  9  10  11  12  13  14  15  16  26  30  31  32  33  35 0
 6-311+G(2d,p)
 ****
 37  38 0
 6-311+G(2d,p)
 ****
 1  2  3  4  5  17  18  19  20  21  22  23  24  25 0
 3-21G
 ****
 27  28  29  34  36  39  40  41  42  43  44  45  46 0
 3-21G
 ****


