%nproc=1
%NoSave
%Mem=1900MB
#P OB98/GEN NMR

erre ene a

0 1
  C      180.449     319.526    -266.514
  O      180.946     318.897    -265.343
  P      181.187     319.841    -264.057
  C      183.687     319.413    -263.538
  O      182.356     319.173    -263.157
  C      184.685     318.923    -262.470
  O      184.889     319.943    -261.458
  C      184.224     317.655    -261.747
  O      185.389     316.893    -261.430
  C      183.617     318.188    -260.461
  O      183.535     317.185    -259.451
  C      184.582     319.342    -260.177
  N      183.000     320.174    -255.383
  C      183.519     319.065    -255.997
  N      183.894     318.930    -257.283
  C      183.723     320.094    -257.948
  C      183.218     321.277    -257.468
  C      182.825     321.301    -256.123
  N      182.270     322.401    -255.511
  N      183.141     322.225    -258.477
  C      183.641     321.611    -259.545
  N      184.018     320.337    -259.269
  O      179.860     319.621    -263.185
  O      181.392     321.277    -264.394
  H      182.877     317.473    -258.785
  H      179.308     320.417    -263.221
  H      183.638     318.196    -255.368
  H      183.701     322.053    -260.540
  H      185.530     318.999    -259.716
  H      182.612     318.570    -260.666
  H      183.506     317.039    -262.304
  H      185.669     318.742    -262.954
  H      183.849     320.504    -263.688
  H      181.989     322.305    -254.540
  H      182.091     323.223    -256.060
  H      183.886     318.954    -264.500
  P      185.919     315.858    -262.547
  C      185.528     313.678    -261.172
  O      186.461     314.581    -261.765
  O      187.231     316.576    -263.110
  O      184.912     315.581    -263.607
  H      187.411     316.279    -264.026
  H      185.883     312.657    -261.340
  H      184.530     313.786    -261.604
  H      185.485     313.880    -260.101
  H      180.334     318.797    -267.289
  H      181.138     320.280    -266.833
  H      179.501     319.975    -266.303

 3  4  5  6  7  8  9  10  11  12  22  25  29  30  31  32 0
 6-311+G(2d,p)
 ****
 33  36  37 0
 6-311+G(2d,p)
 ****
 1  2  13  14  15  16  17  18  19  20  21  23  24  26 0
 3-21G
 ****
 27  28  34  35  38  39  40  41  42  43  44  45  46  47  48 0
 3-21G
 ****


