%nproc=1
%NoSave
%Mem=1900MB
#P OB98/GEN NMR

erre ene a

0 1
  C      166.681      68.424     152.617
  O      166.092      68.703     151.363
  H      166.988      69.366     153.079
  H      167.566      67.796     152.486
  H      165.968      67.926     153.281
  P      165.370      67.515     150.563
  C      162.976      68.446     150.806
  O      163.880      67.402     151.146
  C      161.858      67.900     149.922
  O      161.163      66.829     150.595
  C      160.789      68.928     149.564
  O      161.254      69.823     148.569
  C      159.652      68.015     149.125
  O      159.851      67.562     147.779
  C      159.792      66.844     150.129
  N      158.861      66.930     151.253
  C      157.511      66.777     150.952
  O      157.093      66.615     149.802
  N      156.648      66.836     152.016
  C      156.994      67.108     153.309
  O      156.172      67.202     154.219
  C      158.427      67.297     153.564
  C      159.282      67.203     152.542
  O      166.119      66.224     150.502
  O      165.137      68.132     149.103
  H      160.729      67.133     147.754
  H      165.823      67.801     148.492
  H      155.665      66.738     151.815
  H      158.737      67.522     154.581
  H      160.344      67.341     152.713
  H      159.625      65.886     149.619
  H      158.679      68.508     149.153
  H      160.473      69.475     150.464
  H      162.316      67.487     149.008
  H      163.526      69.226     150.263
  H      162.566      68.874     151.728
  P      160.527      71.228     148.327
  C      162.298      72.754     149.382
  O      160.987      72.219     149.508
  O      159.050      71.150     148.115
  O      161.267      71.829     147.041
  H      160.682      71.762     146.260
  H      162.503      73.396     150.213
  H      162.369      73.314     148.473
  H      163.009      71.955     149.365

 6  7  8  9  10  11  12  13  14  15  16  26  31  32  33  34  35 0
 6-311+G(2d,p)
 ****
 36  37 0
 6-311+G(2d,p)
 ****
 1  2  3  4  5  17  18  19  20  21  22  23  24  25 0
 3-21G
 ****
 27  28  29  30  38  39  40  41  42  43  44  45 0
 3-21G
 ****


