%nproc=1
%NoSave
%Mem=1900MB
#P OB98/GEN NMR

erre ene a

0 1
  C      -74.525     495.169    -204.365
  O      -75.788     495.473    -203.815
  P      -76.328     494.712    -202.515
  C      -78.465     494.150    -203.824
  O      -77.933     494.640    -202.606
  C      -79.434     495.152    -204.446
  O      -80.624     495.247    -203.627
  C      -78.866     496.566    -204.614
  O      -79.357     497.083    -205.851
  C      -79.463     497.317    -203.444
  O      -79.483     498.721    -203.658
  C      -80.839     496.644    -203.352
  N      -81.461     496.839    -202.052
  C      -81.698     498.162    -201.665
  O      -81.273     499.098    -202.339
  N      -82.408     498.386    -200.500
  C      -82.687     497.384    -199.718
  N      -83.449     497.647    -198.615
  C      -82.225     496.010    -199.985
  C      -81.667     495.801    -201.169
  O      -75.806     495.229    -201.211
  O      -75.888     493.184    -202.737
  H      -75.393     492.874    -201.953
  H      -78.555     499.048    -203.672
  H      -82.368     495.232    -199.243
  H      -81.329     494.818    -201.473
  H      -81.509     497.030    -204.127
  H      -78.878     497.117    -202.536
  H      -77.770     496.580    -204.634
  H      -79.747     494.751    -205.428
  H      -83.768     498.595    -198.483
  H      -78.992     493.212    -203.614
  H      -83.962     496.909    -198.135
  H      -77.648     493.910    -204.518
  P      -78.305     497.715    -206.894
  C      -79.358     500.087    -206.971
  O      -79.049     498.903    -207.676
  O      -78.230     496.569    -208.021
  O      -76.935     497.993    -206.367
  H      -77.374     496.632    -208.483
  H      -79.918     500.752    -207.633
  H      -78.446     500.599    -206.650
  H      -79.987     499.863    -206.101
  H      -74.353     495.783    -205.224
  H      -74.500     494.139    -204.653
  H      -73.764     495.354    -203.636

 3  4  5  6  7  8  9  10  11  12  13  24  27  28  29  30  32 0
 6-311+G(2d,p)
 ****
 34  35 0
 6-311+G(2d,p)
 ****
 1  2  14  15  16  17  18  19  20  21  22  23  25  26 0
 3-21G
 ****
 31  33  36  37  38  39  40  41  42  43  44  45  46 0
 3-21G
 ****


