%nproc=1
%NoSave
%Mem=1900MB
#P OB98/GEN NMR

erre ene a

0 1
  C      629.072     590.626     724.824
  O      628.408     589.763     725.756
  P      629.319     588.892     726.752
  C      629.635     586.794     725.232
  O      629.088     587.341     726.436
  C      629.277     585.300     725.130
  O      629.865     584.550     726.206
  C      627.810     585.036     725.216
  O      627.148     585.335     723.979
  C      627.763     583.550     725.582
  O      627.729     582.715     724.409
  C      629.073     583.365     726.367
  N      628.851     583.069     727.785
  C      629.101     581.743     728.164
  O      629.460     580.894     727.333
  N      628.902     581.399     729.485
  C      628.470     582.274     730.326
  N      628.296     581.883     731.615
  C      628.175     583.682     729.950
  C      628.384     584.008     728.676
  O      628.613     589.097     728.174
  O      630.762     589.328     726.782
  H      628.220     583.214     723.722
  H      629.274     589.090     728.887
  H      627.807     584.392     730.682
  H      628.192     585.003     728.298
  H      629.651     582.545     725.931
  H      626.862     583.300     726.158
  H      627.344     585.636     726.014
  H      629.681     584.937     724.166
  H      628.512     580.918     731.838
  H      630.721     586.935     725.219
  H      627.956     582.487     732.360
  H      629.238     587.363     724.387
  P      626.413     586.746     723.839
  C      624.248     585.386     724.013
  O      624.950     586.412     723.304
  O      627.107     587.377     722.522
  O      626.521     587.688     725.007
  H      626.804     588.285     722.395
  H      623.201     585.401     723.685
  H      624.279     585.563     725.081
  H      624.670     584.408     723.770
  H      628.344     591.139     724.231
  H      629.705     590.044     724.187
  H      629.664     591.340     725.358

 3  4  5  6  7  8  9  10  11  12  13  21  23  27  28  29  30  32 0
 6-311+G(2d,p)
 ****
 34  35 0
 6-311+G(2d,p)
 ****
 1  2  14  15  16  17  18  19  20  22  24  25  26 0
 3-21G
 ****
 31  33  36  37  38  39  40  41  42  43  44  45  46 0
 3-21G
 ****


