%nproc=1
%NoSave
%Mem=1900MB
#P OB98/GEN NMR

erre ene a

0 1
  C      -72.056     -18.153     -25.584
  O      -73.017     -17.503     -24.771
  P      -72.512     -16.398     -23.723
  C      -72.250     -18.205     -21.832
  O      -71.659     -17.180     -22.612
  C      -71.214     -18.816     -20.883
  O      -70.078     -19.282     -21.663
  C      -70.675     -17.847     -19.822
  O      -70.441     -18.610     -18.630
  C      -69.360     -17.384     -20.426
  O      -68.457     -16.881     -19.453
  C      -68.892     -18.671     -21.115
  N      -67.900     -18.441     -22.166
  C      -66.555     -18.554     -21.826
  O      -66.154     -18.815     -20.693
  N      -65.664     -18.327     -22.844
  C      -65.975     -17.942     -24.116
  O      -65.134     -17.732     -24.983
  C      -67.409     -17.789     -24.402
  C      -68.289     -18.052     -23.435
  O      -73.878     -16.030     -22.979
  O      -71.807     -15.247     -24.356
  H      -74.471     -16.794     -22.871
  H      -67.643     -16.602     -19.910
  H      -64.684     -18.441     -22.630
  H      -67.695     -17.470     -25.398
  H      -69.352     -17.947     -23.621
  H      -68.486     -19.367     -20.372
  H      -69.554     -16.587     -21.153
  H      -71.369     -17.029     -19.610
  H      -71.663     -19.696     -20.405
  H      -72.634     -18.988     -22.492
  H      -73.096     -17.791     -21.273
  P      -70.636     -17.879     -17.209
  C      -68.104     -17.213     -17.303
  O      -69.436     -16.830     -17.044
  O      -70.209     -19.068     -16.218
  O      -72.015     -17.372     -16.946
  H      -69.374     -19.492     -16.475
  H      -67.503     -16.313     -17.462
  H      -68.035     -17.840     -18.195
  H      -67.703     -17.755     -16.441
  H      -72.547     -18.856     -26.224
  H      -71.353     -18.667     -24.963
  H      -71.543     -17.427     -26.179

 3  4  5  6  7  8  9  10  11  12  13  24  28  29  30  31  32 0
 6-311+G(2d,p)
 ****
 33  34 0
 6-311+G(2d,p)
 ****
 1  2  14  15  16  17  18  19  20  21  22  23  25  26  27 0
 3-21G
 ****
 35  36  37  38  39  40  41  42  43  44  45 0
 3-21G
 ****


