%nproc=1
%NoSave
%Mem=1900MB
#P OB98/GEN NMR

erre ene a

0 1
  C     -139.102    -893.250    -896.130
  O     -140.405    -893.020    -895.630
  H     -139.179    -893.570    -897.170
  H     -138.614    -894.040    -895.550
  H     -138.513    -892.330    -896.090
  P     -140.505    -892.520    -894.110
  C     -143.039    -891.910    -894.210
  O     -141.704    -891.450    -894.070
  C     -143.518    -891.780    -895.660
  O     -142.749    -892.690    -896.490
  C     -144.995    -892.160    -895.860
  O     -145.505    -891.380    -896.970
  C     -144.902    -893.610    -896.250
  O     -146.128    -894.090    -896.800
  C     -143.683    -893.550    -897.160
  N     -144.264    -898.090    -899.430
  C     -145.036    -896.970    -899.450
  N     -144.800    -895.800    -898.810
  C     -143.625    -895.820    -898.170
  C     -142.729    -896.880    -898.090
  C     -143.094    -898.080    -898.770
  N     -142.319    -899.210    -898.760
  N     -141.655    -896.540    -897.310
  C     -141.878    -895.290    -896.940
  N     -143.074    -894.840    -897.430
  O     -139.193    -891.630    -893.930
  O     -140.603    -893.600    -893.090
  H     -146.869    -893.810    -896.220
  H     -138.483    -892.150    -893.550
  H     -145.955    -897.060    -900.000
  H     -141.233    -894.690    -896.330
  H     -143.934    -893.100    -898.130
  H     -144.698    -894.230    -895.360
  H     -145.627    -891.940    -894.980
  H     -143.305    -890.760    -896.020
  H     -143.682    -891.310    -893.540
  H     -143.105    -892.970    -893.900
  H     -142.662    -900.000    -899.270
  H     -141.460    -899.200    -898.240
  P     -146.079    -889.900    -896.710
  C     -145.657    -888.340    -898.790
  O     -145.197    -888.860    -897.530
  O     -145.637    -889.650    -895.190
  O     -147.568    -889.780    -896.860
  H     -146.254    -889.020    -894.780
  H     -144.929    -887.661    -899.183
  H     -146.584    -887.826    -898.646
  H     -145.800    -889.147    -899.478

 6  7  8  9  10  11  12  13  14  15  25  28  32  33  34  35 0
 6-311+G(2d,p)
 ****
 36  37  40 0
 6-311+G(2d,p)
 ****
 1  2  3  4  5  16  17  18  19  20  21  22  23  24 0
 3-21G
 ****
 26  27  29  30  31  38  39 41  42  43  44  45  46  47  48 0
 3-21G
 ****


