%nproc=1
%NoSave
%Mem=1900MB
#P OB98/GEN NMR

erre ene a

0 1
  C      225.189     -66.766     -49.983
  O      225.974     -67.877     -50.363
  P      225.794     -69.302     -49.659
  C      227.193     -68.697     -47.578
  O      225.903     -69.051     -48.072
  C      227.973     -69.957     -47.183
  O      229.359     -69.581     -46.904
  C      227.406     -70.643     -45.923
  O      227.129     -72.036     -46.081
  C      228.439     -70.301     -44.862
  O      228.424     -71.168     -43.743
  C      229.731     -70.256     -45.686
  N      230.822     -69.581     -44.985
  C      231.979     -70.320     -44.752
  O      232.140     -71.487     -45.100
  N      232.955     -69.693     -44.029
  C      232.851     -68.471     -43.430
  O      233.728     -68.008     -42.715
  C      231.587     -67.753     -43.683
  C      230.655     -68.317     -44.455
  O      226.683     -70.385     -50.169
  O      224.232     -69.603     -49.838
  H      228.552     -72.080     -44.067
  H      223.637     -68.943     -49.435
  H      233.796     -70.217     -43.851
  H      231.473     -66.787     -43.214
  H      229.716     -67.813     -44.658
  H      230.066     -71.260     -45.961
  H      228.214     -69.293     -44.486
  H      226.439     -70.210     -45.638
  H      227.964     -70.637     -48.039
  H      227.069     -68.063     -46.701
  H      227.734     -68.115     -48.332
  P      225.714     -72.731     -45.788
  C      225.990     -72.342     -43.233
  O      225.177     -72.197     -44.379
  O      225.690     -74.216     -45.952
  O      224.729     -72.032     -46.844
  H      224.012     -72.648     -47.079
  H      225.344     -72.418     -42.354
  H      226.621     -71.456     -43.125
  H      226.614     -73.236     -43.289
  H      225.465     -65.916     -50.572
  H      225.353     -66.551     -48.948
  H      224.155     -66.989     -50.141

 3  4  5  6  7  8  9  10  11  12  13  23  28  29  30  31  32 0
 6-311+G(2d,p)
 ****
 33  34 0
 6-311+G(2d,p)
 ****
 1  2  14  15  16  17  18  19  20  21  22  24  25  26  27 0
 3-21G
 ****
 35  36  37  38  39  40  41  42  43  44  45 0
 3-21G
 ****


