%nproc=1
%NoSave
%Mem=1900MB
#P OB98/GEN NMR

erre ene a

0 1
  C      414.987     695.448     179.698
  O      413.580     695.350     179.538
  P      412.989     693.984     178.910
  C      410.497     694.797     179.232
  O      411.518     694.374     178.360
  C      409.453     695.629     178.484
  O      410.015     696.914     178.139
  C      409.001     695.017     177.154
  O      408.084     693.953     177.352
  C      408.426     696.235     176.436
  O      407.095     696.520     176.921
  C      409.404     697.348     176.902
  N      410.402     697.700     175.892
  C      410.539     699.047     175.596
  O      409.877     699.936     176.149
  N      411.461     699.337     174.638
  C      412.191     698.461     173.901
  O      412.973     698.785     173.004
  C      411.981     697.042     174.236
  C      411.106     696.735     175.198
  O      412.716     693.141     180.236
  O      413.906     693.346     177.924
  H      412.552     693.720     181.005
  H      406.866     697.417     176.594
  H      411.597     700.330     174.423
  H      412.535     696.302     173.665
  H      410.925     695.693     175.458
  H      408.826     698.263     177.149
  H      408.368     696.109     175.360
  H      409.873     694.636     176.594
  H      408.598     695.789     179.153
  H      410.941     695.410     180.035
  H      410.035     693.924     179.699
  P      408.122     692.748     176.284
  C      405.760     691.886     177.016
  O      406.590     692.375     175.974
  O      408.668     691.536     177.186
  O      408.970     693.056     175.079
  H      408.242     691.523     178.065
  H      404.707     692.020     176.719
  H      405.943     692.423     177.954
  H      405.944     690.821     177.154
  H      415.232     696.400     180.121
  H      415.462     695.349     178.744
  H      415.327     694.670     180.349

 3  4  5  6  7  8  9  10  11  12  13  24  28  29  30  31  32 0
 6-311+G(2d,p)
 ****
 33  34 0
 6-311+G(2d,p)
 ****
 1  2  14  15  16  17  18  19  20  21  22  23  25  26  27 0
 3-21G
 ****
 35  36  37  38  39  40  41  42  43  44  45 0
 3-21G
 ****


