%nproc=1
%NoSave
%Mem=1900MB
#P OB98/GEN NMR

erre ene a

0 1
  C     -123.905      40.897     103.000
  O     -123.695      42.192     103.524
  H     -124.932      40.595     103.219
  H     -123.224      40.177     103.462
  H     -123.766      40.899     101.916
  P     -122.220      42.819     103.436
  C     -120.256      42.556     105.107
  O     -121.352      41.930     104.458
  C     -119.220      41.514     105.520
  O     -118.589      40.924     104.364
  C     -118.064      42.055     106.356
  O     -118.424      42.343     107.697
  C     -117.095      40.888     106.253
  O     -117.530      39.823     107.118
  C     -117.258      40.494     104.765
  N     -116.244      41.097     103.901
  C     -114.911      40.757     104.164
  O     -114.633      39.988     105.083
  N     -113.919      41.327     103.405
  C     -114.228      42.176     102.474
  N     -113.203      42.748     101.782
  C     -115.618      42.549     102.150
  C     -116.566      41.984     102.896
  O     -122.116      44.297     103.629
  O     -121.659      42.320     102.021
  H     -118.310      39.418     106.699
  H     -120.750      42.693     101.914
  H     -115.820      43.268     101.371
  H     -117.611      42.221     102.730
  H     -117.222      39.405     104.645
  H     -116.073      41.148     106.545
  H     -117.611      42.930     105.877
  H     -119.752      40.707     106.041
  H     -112.263      42.501     102.060
  H     -120.639      43.095     105.979
  H     -113.338      43.603     101.252
  H     -119.776      43.270     104.431
  P     -118.413      43.881     108.164
  C     -116.633      45.778     108.019
  O     -116.894      44.385     108.047
  O     -118.656      43.775     109.740
  O     -119.405      44.772     107.487
  H     -119.605      43.868     109.957
  H     -115.579      45.942     107.939
  H     -116.996      46.227     108.920
  H     -117.127      46.217     107.177

 6  7  8  9  10  11  12  13  14  15  16  26  30  31  32  33  35 0
 6-311+G(2d,p)
 ****
 37  38 0
 6-311+G(2d,p)
 ****
 1  2  3  4  5  17  18  19  20  21  22  23  24  25 0
 3-21G
 ****
 27  28  29  34  36  39  40  41  42  43  44  45  46 0
 3-21G
 ****


