%nproc=1
%NoSave
%Mem=1900MB
#P OB98/GEN NMR

erre ene a

0 1
  C     -124.041     137.402    -681.155
  O     -124.597     137.278    -682.450
  H     -124.771     137.839    -680.471
  H     -123.778     136.404    -680.790
  H     -123.135     138.016    -681.184
  P     -125.049     138.642    -683.171
  C     -127.300     137.585    -683.934
  O     -126.081     138.206    -684.327
  C     -127.942     136.918    -685.148
  O     -128.378     137.918    -686.091
  C     -127.005     135.985    -685.924
  O     -126.895     134.708    -685.317
  C     -127.742     135.916    -687.249
  O     -128.868     135.020    -687.145
  C     -128.220     137.361    -687.433
  N     -126.368     138.414    -692.089
  C     -127.269     137.503    -691.661
  N     -127.707     137.276    -690.400
  C     -127.119     138.123    -689.549
  C     -126.163     139.098    -689.823
  C     -125.796     139.233    -691.175
  N     -124.859     140.145    -691.613
  N     -125.760     139.735    -688.671
  C     -126.471     139.180    -687.706
  N     -127.300     138.197    -688.184
  O     -123.744     139.080    -683.996
  O     -125.540     139.721    -682.261
  H     -128.515     134.114    -687.150
  H     -123.788     140.036    -684.207
  H     -127.701     136.866    -692.435
  H     -126.430     139.456    -686.661
  H     -129.202     137.413    -687.923
  H     -127.111     135.537    -688.060
  H     -126.027     136.450    -686.073
  H     -128.839     136.372    -684.793
  H     -127.982     138.344    -683.534
  H     -124.543     140.047    -692.564
  H     -124.322     140.657    -690.922
  H     -127.099     136.846    -683.147
  P     -125.554     134.395    -684.499
  C     -125.890     131.942    -685.309
  O     -125.581     132.814    -684.218
  O     -125.850     135.028    -683.058
  O     -124.304     134.934    -685.114
  H     -125.027     135.275    -682.600
  H     -125.870     130.927    -684.971
  H     -125.167     132.073    -686.086
  H     -126.864     132.173    -685.686

 6  7  8  9  10  11  12  13  14  15  25  28  32  33  34  35 0
 6-311+G(2d,p)
 ****
 36  39  40 0
 6-311+G(2d,p)
 ****
 1  2  3  4  5  16  17  18  19  20  21  22  23  24 0
 3-21G
 ****
 26  27  29  30  31  37  38  41  42  43  44  45  46  47 0
 3-21G
 ****
 48 0
 3-21G
 ****


