%nproc=1
%NoSave
%Mem=1900MB
#P OB98/GEN NMR

erre ene a

0 1
  C      -11.569     788.877    -172.667
  O      -12.101     789.910    -171.866
  H      -12.348     788.120    -172.820
  H      -10.724     788.410    -172.154
  H      -11.249     789.251    -173.643
  P      -11.365     791.336    -171.857
  C      -10.189     791.891    -169.625
  O      -10.092     791.234    -170.885
  C      -10.788     790.977    -168.554
  O      -10.052     789.736    -168.505
  C      -10.721     791.594    -167.152
  O      -11.816     792.428    -166.823
  C      -10.693     790.354    -166.263
  O      -12.028     789.910    -165.937
  C       -9.980     789.305    -167.133
  N       -6.597     786.333    -164.712
  C       -7.978     786.253    -164.708
  N       -8.518     785.287    -163.928
  N       -8.749     787.063    -165.389
  C       -8.072     788.048    -166.035
  C       -6.704     788.232    -166.093
  C       -5.855     787.286    -165.398
  O       -4.635     787.306    -165.379
  N       -6.382     789.365    -166.816
  C       -7.554     789.887    -167.118
  N       -8.597     789.087    -166.729
  O      -12.367     792.262    -171.016
  O      -11.093     791.924    -173.208
  H      -12.394     790.534    -165.286
  H      -12.311     793.183    -171.346
  H       -6.063     785.664    -164.189
  H       -7.692     790.829    -167.639
  H      -10.489     788.339    -167.084
  H      -10.190     790.561    -165.313
  H       -7.974     784.692    -163.322
  H       -9.775     792.141    -167.010
  H       -9.527     785.313    -163.757
  H      -11.825     790.735    -168.835
  H      -10.839     792.758    -169.783
  H       -9.207     792.260    -169.307
  P      -11.732     793.431    -165.572
  C      -12.863     792.802    -163.281
  O      -11.843     792.567    -164.230
  O      -13.145     794.192    -165.633
  O      -10.586     794.386    -165.579
  H      -13.046     795.066    -166.055
  H      -12.755     792.119    -162.465
  H      -13.818     792.659    -163.741
  H      -12.788     793.806    -162.918

 6  7  8  9  10  11  12  13  14  15  26  29  33  34 0
 6-311+G(2d,p)
 ****
 36  38  39  40  41 0
 6-311+G(2d,p)
 ****
 1  2  3  4  5  16  17  18  19  20  21  22  23  24  25 0
 3-21G
 ****
 27  28  30  31  32  35  37  42  43  44  45  46  47 0
 3-21G
 ****
 48  49 0
 3-21G
 ****


