%nproc=1
%NoSave
%Mem=1900MB
#P OB98/GEN NMR

erre ene a

0 1
  C     -502.647     303.850    -684.116
  O     -503.048     302.494    -684.147
  H     -502.788     304.286    -685.107
  H     -501.587     303.935    -683.851
  H     -503.252     304.405    -683.396
  P     -502.793     301.592    -682.851
  C     -500.212     301.735    -682.947
  O     -501.363     300.910    -683.079
  C     -499.208     301.085    -682.000
  O     -499.623     301.264    -680.631
  C     -499.081     299.581    -682.198
  O     -498.326     299.289    -683.352
  C     -498.459     299.164    -680.879
  O     -497.047     299.412    -680.865
  C     -499.194     300.096    -679.884
  N     -500.324     299.446    -679.231
  C     -500.031     298.263    -678.538
  O     -498.882     297.831    -678.508
  N     -501.067     297.599    -677.929
  C     -502.274     298.069    -677.984
  N     -503.247     297.360    -677.359
  C     -502.616     299.322    -678.686
  C     -501.601     299.950    -679.283
  O     -503.882     300.638    -682.464
  O     -502.499     302.667    -681.701
  H     -496.709     299.003    -680.041
  H     -503.333     302.931    -681.258
  H     -503.632     299.683    -678.697
  H     -501.768     300.880    -679.824
  H     -498.499     300.455    -679.111
  H     -498.611     298.106    -680.680
  H     -500.077     299.126    -682.263
  H     -498.239     301.584    -682.124
  H     -502.967     296.502    -676.898
  H     -500.548     302.695    -682.536
  H     -504.201     297.676    -677.258
  H     -499.748     301.917    -683.920
  P     -498.948     298.413    -684.537
  C     -499.156     296.096    -683.430
  O     -498.399     296.921    -684.312
  O     -498.748     298.965    -685.911
  O     -500.495     298.291    -684.126
  H     -500.974     299.137    -684.282
  H     -498.696     295.132    -683.360
  H     -500.151     295.989    -683.808
  H     -499.189     296.547    -682.460

 6  7  8  9  10  11  12  13  14  15  16  26  30  31  32  33  35 0
 6-311+G(2d,p)
 ****
 37  38 0
 6-311+G(2d,p)
 ****
 1  2  3  4  5  17  18  19  20  21  22  23  24  25 0
 3-21G
 ****
 27  28  29  34  36  39  40  41  42  43  44  45  46 0
 3-21G
 ****


