%nproc=1
%NoSave
%Mem=1900MB
#P OB98/GEN NMR

erre ene a

0 1
  C      -60.550     139.207     246.700
  O      -60.277     140.560     246.398
  H      -60.661     138.656     245.762
  H      -61.478     139.121     247.269
  H      -59.723     138.768     247.266
  P      -60.134     141.605     247.604
  C      -57.959     142.825     246.938
  O      -59.380     142.893     247.013
  C      -57.406     144.095     246.283
  O      -57.574     143.963     244.849
  C      -58.142     145.364     246.740
  O      -57.266     146.376     247.229
  C      -59.024     145.708     245.544
  O      -59.362     147.074     245.435
  C      -58.229     145.148     244.359
  N      -59.050     144.837     243.191
  C      -58.845     145.598     242.044
  O      -58.009     146.492     241.928
  N      -59.647     145.287     240.975
  C      -60.613     144.327     240.947
  O      -61.296     144.090     239.957
  C      -60.799     143.571     242.196
  C      -60.023     143.858     243.245
  O      -59.548     141.061     248.864
  O      -61.628     142.138     247.833
  H      -59.979     147.168     244.681
  H      -62.012     141.703     248.617
  H      -59.497     145.825     240.136
  H      -61.564     142.808     242.212
  H      -60.133     143.318     244.182
  H      -57.461     145.855     244.044
  H      -59.964     145.150     245.639
  H      -58.785     145.150     247.604
  H      -56.329     144.158     246.484
  H      -57.695     141.945     246.344
  H      -57.542     142.715     247.946
  P      -57.471     147.174     248.595
  C      -55.105     146.874     249.687
  O      -56.047     147.735     249.064
  O      -58.299     146.485     249.626
  O      -58.268     148.498     248.134
  H      -58.856     148.743     248.879
  H      -54.221     147.427     249.926
  H      -54.857     146.075     249.020
  H      -55.528     146.472     250.584

 6  7  8  9  10  11  12  13  14  15  16  26  31  32  33  34  35 0
 6-311+G(2d,p)
 ****
 36  37 0
 6-311+G(2d,p)
 ****
 1  2  3  4  5  17  18  19  20  21  22  23  24  25 0
 3-21G
 ****
 27  28  29  30  38  39  40  41  42  43  44  45 0
 3-21G
 ****


