%nproc=1
%NoSave
%Mem=1900MB
#P OB98/GEN NMR

erre ene a

0 1
  C     -365.446    -208.174     165.923
  O     -366.087    -206.974     165.531
  P     -365.254    -205.761     164.911
  C     -365.866    -204.197     166.933
  O     -364.880    -204.752     166.091
  C     -365.245    -203.048     167.737
  O     -364.173    -203.545     168.564
  C     -364.673    -201.969     166.823
  O     -365.620    -200.931     166.622
  C     -363.435    -201.516     167.575
  O     -363.788    -200.580     168.608
  C     -362.951    -202.849     168.201
  N     -362.141    -203.755     167.367
  C     -360.758    -203.596     167.317
  O     -360.146    -202.751     167.963
  N     -360.090    -204.442     166.466
  C     -360.661    -205.431     165.719
  O     -360.101    -206.013     164.793
  C     -362.064    -205.724     166.017
  C     -362.734    -204.872     166.794
  O     -366.356    -204.956     164.073
  O     -364.083    -206.149     164.070
  H     -364.563    -200.944     169.073
  H     -366.304    -205.188     163.128
  H     -359.106    -204.238     166.322
  H     -362.520    -206.586     165.551
  H     -363.789    -205.043     167.003
  H     -362.383    -202.665     169.121
  H     -362.741    -200.997     166.917
  H     -364.361    -202.407     165.865
  H     -366.011    -202.623     168.398
  H     -366.261    -204.966     167.606
  H     -366.706    -203.829     166.335
  P     -365.363    -199.831     165.488
  C     -365.488    -197.952     167.225
  O     -364.688    -198.590     166.251
  O     -366.538    -199.499     164.632
  O     -364.164    -200.465     164.631
  H     -364.522    -200.909     163.836
  H     -364.867    -197.251     167.787
  H     -365.913    -198.683     167.916
  H     -366.291    -197.391     166.736
  H     -366.173    -208.856     166.311
  H     -364.719    -207.960     166.678
  H     -364.961    -208.613     165.076

 3  4  5  6  7  8  9  10  11  12  13  23  28  29  30  31  32 0
 6-311+G(2d,p)
 ****
 33  34 0
 6-311+G(2d,p)
 ****
 1  2  14  15  16  17  18  19  20  21  22  24  25  26  27 0
 3-21G
 ****
 35  36  37  38  39  40  41  42  43  44  45 0
 3-21G
 ****


