%nproc=1
%NoSave
%Mem=1900MB
#P OB98/GEN NMR

erre ene a

0 1
  C      -39.801      24.111     -32.095
  O      -39.333      25.080     -33.012
  H      -40.100      24.617     -31.174
  H      -39.004      23.400     -31.865
  H      -40.667      23.584     -32.506
  P      -39.016      24.568     -34.502
  C      -39.890      26.734     -35.700
  O      -38.795      25.897     -35.372
  C      -39.427      28.181     -35.864
  O      -39.288      28.776     -34.550
  C      -38.088      28.324     -36.586
  O      -38.136      29.491     -37.408
  C      -37.094      28.527     -35.455
  O      -35.916      29.200     -35.897
  C      -37.945      29.289     -34.430
  N      -37.438      29.141     -33.068
  C      -37.071      30.315     -32.402
  O      -37.161      31.403     -32.971
  N      -36.570      30.227     -31.128
  C      -36.384      29.061     -30.590
  N      -35.865      29.040     -29.333
  C      -36.707      27.795     -31.275
  C      -37.234      27.908     -32.492
  O      -40.450      24.037     -34.974
  O      -37.923      23.558     -34.583
  H      -35.318      29.304     -35.123
  H      -41.186      24.612     -34.705
  H      -36.520      26.848     -30.790
  H      -37.508      27.028     -33.064
  H      -37.974      30.359     -34.673
  H      -36.790      27.555     -35.046
  H      -37.829      27.458     -37.194
  H      -40.217      28.741     -36.379
  H      -35.639      29.929     -28.906
  H      -40.655      26.682     -34.919
  H      -35.631      28.192     -28.839
  H      -40.328      26.367     -36.634
  P      -38.715      29.376     -38.897
  C      -40.611      31.081     -38.520
  O      -39.457      30.748     -39.275
  O      -39.487      28.136     -39.200
  O      -37.388      29.449     -39.801
  H      -37.498      28.828     -40.547
  H      -41.009      32.011     -38.868
  H      -40.348      31.170     -37.487
  H      -41.347      30.313     -38.636

 6  7  8  9  10  11  12  13  14  15  16  26  30  31  32  33  35 0
 6-311+G(2d,p)
 ****
 37  38 0
 6-311+G(2d,p)
 ****
 1  2  3  4  5  17  18  19  20  21  22  23  24  25 0
 3-21G
 ****
 27  28  29  34  36  39  40  41  42  43  44  45  46 0
 3-21G
 ****


