%nproc=1
%NoSave
%Mem=1900MB
#P OB98/GEN NMR

erre ene a

0 1
  C       36.002      60.886     506.264
  O       36.762      59.873     505.619
  P       38.318      60.168     505.335
  C       39.638      61.212     503.319
  O       38.469      60.559     503.793
  C       39.700      61.193     501.782
  O       39.950      59.840     501.351
  C       38.422      61.621     501.074
  O       38.745      61.967     499.722
  C       37.617      60.337     501.087
  O       36.567      60.365     500.126
  C       38.706      59.261     500.861
  N       38.431      57.978     501.540
  C       37.393      57.185     501.061
  O       36.682      57.473     500.106
  N       37.155      56.024     501.750
  C       37.864      55.573     502.835
  O       37.564      54.569     503.464
  C       39.038      56.377     503.206
  C       39.251      57.531     502.562
  O       39.009      58.731     505.448
  O       38.916      61.159     506.286
  H       36.019      59.554     500.285
  H       39.493      58.653     506.280
  H       36.372      55.465     501.461
  H       39.670      56.029     504.010
  H       40.102      58.146     502.843
  H       38.825      59.038     499.784
  H       37.158      60.196     502.069
  H       37.880      62.447     501.556
  H       40.551      61.808     501.456
  H       40.531      60.723     503.742
  H       39.651      62.254     503.674
  P       38.348      63.439     499.211
  C       36.832      64.387     497.363
  O       37.168      63.243     498.136
  O       39.483      64.306     498.784
  O       37.575      64.062     500.475
  H       37.554      65.030     500.396
  H       36.459      64.047     496.393
  H       37.701      65.045     497.202
  H       36.044      64.947     497.877
  H       34.993      60.552     506.386
  H       36.014      61.775     505.668
  H       36.427      61.094     507.224

 3  4  5  6  7  8  9  10  11  12  13  23  28  29  30  31  32 0
 6-311+G(2d,p)
 ****
 33  34 0
 6-311+G(2d,p)
 ****
 1  2  14  15  16  17  18  19  20  21  22  24  25  26  27 0
 3-21G
 ****
 35  36  37  38  39  40  41  42  43  44  45 0
 3-21G
 ****


