%nproc=1
%NoSave
%Mem=1900MB
#P OB98/GEN NMR

erre ene a

0 1
  C      -11.323    -188.462     160.691
  O      -12.718    -188.274     160.560
  H      -10.809    -187.762     160.030
  H      -11.057    -189.482     160.397
  H      -11.004    -188.277     161.722
  P      -13.666    -189.032     161.608
  C      -14.801    -191.370     161.712
  O      -13.947    -190.490     160.994
  C      -14.795    -192.754     161.057
  O      -15.177    -192.604     159.659
  C      -13.427    -193.453     161.087
  O      -13.640    -194.857     161.265
  C      -12.881    -193.203     159.692
  O      -11.899    -194.145     159.277
  C      -14.170    -193.268     158.864
  N      -14.030    -192.628     157.556
  C      -14.045    -193.458     156.435
  O      -14.256    -194.670     156.459
  N      -13.809    -192.833     155.238
  C      -13.540    -191.505     155.059
  O      -13.313    -191.010     153.960
  C      -13.528    -190.688     156.277
  C      -13.763    -191.277     157.452
  O      -15.070    -188.280     161.434
  O      -13.189    -189.035     163.023
  H      -15.128    -187.518     162.043
  H      -11.515    -193.812     158.441
  H      -13.818    -193.417     154.417
  H      -13.306    -189.632     156.176
  H      -13.740    -190.703     158.375
  H      -14.485    -194.310     158.732
  H      -12.435    -192.204     159.642
  H      -12.750    -193.082     161.868
  H      -15.562    -193.374     161.536
  H      -15.824    -190.975     161.700
  H      -14.462    -191.439     162.752
  P      -13.565    -195.436     162.763
  C      -11.711    -196.728     164.100
  O      -12.076    -196.015     162.922
  O      -14.486    -196.732     162.641
  O      -13.992    -194.446     163.792
  H      -14.419    -197.174     161.774
  H      -10.688    -197.035     164.029
  H      -12.336    -197.590     164.203
  H      -11.834    -196.094     164.953

 6  7  8  9  10  11  12  13  14  15  16  27  31  32  33  34  35 0
 6-311+G(2d,p)
 ****
 36  37 0
 6-311+G(2d,p)
 ****
 1  2  3  4  5  17  18  19  20  21  22  23  24  25 0
 3-21G
 ****
 26  28  29  30  38  39  40  41  42  43  44  45 0
 3-21G
 ****


