%nproc=1
%NoSave
%Mem=1900MB
#P OB98/GEN NMR

erre ene a

0 1
  C      163.598      73.417      36.677
  O      164.218      72.144      36.726
  P      163.872      71.110      35.547
  C      162.200      69.693      36.953
  O      162.399      70.552      35.836
  C      160.733      69.282      37.045
  O      159.905      70.440      37.270
  C      160.179      68.625      35.789
  O      160.626      67.284      35.671
  C      158.681      68.778      36.029
  O      158.225      67.775      36.952
  C      158.604      70.169      36.681
  N      154.813      72.739      34.392
  C      154.804      71.712      35.272
  N      155.855      71.068      35.819
  C      157.012      71.586      35.379
  C      157.178      72.615      34.467
  C      156.008      73.207      33.965
  N      156.022      74.250      33.063
  N      158.515      72.857      34.237
  C      159.148      71.996      35.008
  N      158.284      71.216      35.727
  O      164.812      69.860      35.871
  O      164.095      71.637      34.163
  H      158.692      67.926      37.798
  H      165.115      69.427      35.048
  H      153.822      71.364      35.580
  H      160.223      71.903      35.082
  H      157.862      70.217      37.485
  H      158.086      68.680      35.116
  H      160.475      69.192      34.897
  H      160.623      68.609      37.907
  H      162.477      70.220      37.872
  H      155.144      74.514      32.643
  H      156.907      74.501      32.641
  H      162.847      68.818      36.846
  P      160.902      66.728      34.190
  C      158.552      65.704      34.032
  O      159.442      66.681      33.521
  O      161.206      65.185      34.476
  O      161.944      67.468      33.426
  H      160.539      64.782      35.058
  H      157.587      65.816      33.530
  H      158.412      65.844      35.108
  H      158.940      64.702      33.832
  H      163.915      74.000      37.516
  H      162.535      73.297      36.706
  H      163.876      73.915      35.771

 3  4  5  6  7  8  9  10  11  12  22  25  29  30  31  32 0
 6-311+G(2d,p)
 ****
 33  36  37 0
 6-311+G(2d,p)
 ****
 1  2  13  14  15  16  17  18  19  20  21  23  24  26 0
 3-21G
 ****
 27  28  34  35  38  39  40  41  42  43  44  45  46  47  48 0
 3-21G
 ****


