%nproc=1
%NoSave
%Mem=1900MB
#P OB98/GEN NMR

erre ene a

0 1
  C      -38.993     129.047    -326.270
  O      -39.964     129.808    -326.954
  H      -38.819     128.122    -326.825
  H      -39.363     128.795    -325.273
  H      -38.047     129.587    -326.185
  P      -40.080     131.370    -326.639
  C      -40.313     132.852    -324.538
  O      -40.423     131.541    -325.078
  C      -41.284     133.066    -323.376
  O      -40.887     132.248    -322.254
  C      -41.299     134.515    -322.882
  O      -42.194     135.365    -323.579
  C      -41.720     134.348    -321.425
  O      -43.153     134.355    -321.293
  C      -41.154     132.977    -321.048
  N      -38.959     132.304    -316.479
  C      -40.300     132.245    -316.812
  N      -41.154     132.016    -315.792
  N      -40.744     132.415    -318.031
  C      -39.780     132.734    -318.922
  C      -38.424     132.841    -318.705
  C      -37.931     132.581    -317.369
  O      -36.754     132.599    -317.025
  N      -37.758     133.225    -319.843
  C      -38.721     133.434    -320.722
  N      -39.954     133.072    -320.232
  O      -41.461     131.791    -327.341
  O      -38.952     132.217    -327.144
  H      -43.478     135.229    -321.579
  H      -41.404     132.715    -327.646
  H      -38.675     132.137    -315.532
  H      -38.574     133.797    -321.732
  H      -41.881     132.388    -320.473
  H      -41.344     135.173    -320.814
  H      -40.876     131.964    -314.828
  H      -40.291     134.940    -322.897
  H      -42.155     132.154    -315.963
  H      -42.287     132.736    -323.677
  H      -40.544     133.544    -325.349
  H      -39.286     133.050    -324.219
  P      -42.221     136.939    -323.297
  C      -42.933     138.474    -321.291
  O      -42.717     137.178    -321.800
  O      -43.456     137.443    -324.181
  O      -40.960     137.671    -323.626
  H      -43.145     137.819    -325.026
  H      -43.261     138.408    -320.275
  H      -43.681     138.967    -321.876
  H      -42.021     139.031    -321.336

 6  7  8  9  10  11  12  13  14  15  26  29  33  34 0
 6-311+G(2d,p)
 ****
 36  38  39  40  41 0
 6-311+G(2d,p)
 ****
 1  2  3  4  5  16  17  18  19  20  21  22  23  24  25 0
 3-21G
 ****
 27  28  30  31  32  35  37  42  43  44  45  46  47 0
 3-21G
 ****
 48  49 0
 3-21G
 ****


