%nproc=1
%NoSave
%Mem=1900MB
#P OB98/GEN NMR

erre ene a

0 1
  C      349.383    -426.392     139.130
  O      350.337    -427.373     139.472
  H      349.574    -426.062     138.106
  H      349.480    -425.533     139.800
  H      348.367    -426.789     139.187
  P      350.083    -428.277     140.767
  C      351.330    -430.458     140.176
  O      351.349    -429.251     140.923
  C      351.814    -430.229     138.740
  O      353.099    -429.559     138.761
  C      352.020    -431.571     138.028
  O      351.830    -431.468     136.620
  C      353.486    -431.876     138.310
  O      354.051    -432.792     137.376
  C      354.091    -430.474     138.262
  N      359.092    -429.498     138.189
  C      358.216    -429.657     137.130
  N      358.750    -429.571     135.893
  N      356.940    -429.900     137.278
  C      356.558    -430.039     138.573
  C      357.341    -429.927     139.703
  C      358.742    -429.618     139.525
  O      359.568    -429.483     140.425
  N      356.606    -430.150     140.842
  C      355.391    -430.407     140.403
  N      355.308    -430.337     139.033
  O      348.925    -429.285     140.304
  O      349.698    -427.538     142.014
  H      353.916    -432.422     136.483
  H      348.426    -429.606     141.076
  H      360.062    -429.295     138.018
  H      354.535    -430.638     141.027
  H      354.321    -430.187     137.228
  H      353.553    -432.337     139.298
  H      359.745    -429.561     135.734
  H      351.368    -432.349     138.419
  H      358.199    -429.973     135.129
  H      351.120    -429.573     138.209
  H      350.296    -430.822     140.171
  H      351.939    -431.218     140.674
  P      350.392    -431.865     136.037
  C      350.086    -430.193     134.038
  O      350.380    -431.508     134.476
  O      349.407    -430.792     136.693
  O      349.986    -433.264     136.350
  H      348.884    -431.203     137.405
  H      350.127    -430.155     132.969
  H      350.803    -429.512     134.447
  H      349.106    -429.918     134.367

 6  7  8  9  10  11  12  13  14  15  26  29  33  34 0
 6-311+G(2d,p)
 ****
 36  38  39  40  41 0
 6-311+G(2d,p)
 ****
 1  2  3  4  5  16  17  18  19  20  21  22  23  24  25 0
 3-21G
 ****
 27  28  30  31  32  35  37  42  43  44  45  46  47 0
 3-21G
 ****
 48  49 0
 3-21G
 ****


