%nproc=1
%NoSave
%Mem=1900MB
#P OB98/GEN NMR

erre ene a

0 1
  C      171.138    -276.190    -291.615
  O      171.010    -276.030    -290.210
  H      170.337    -275.632    -292.104
  H      171.053    -277.247    -291.882
  H      172.101    -275.795    -291.949
  P      172.078    -276.802    -289.297
  C      170.108    -277.069    -287.630
  O      171.474    -276.709    -287.807
  C      169.638    -276.698    -286.220
  O      170.261    -277.553    -285.240
  C      169.968    -275.262    -285.814
  O      168.976    -274.375    -286.311
  C      169.888    -275.376    -284.298
  O      168.511    -275.320    -283.869
  C      170.463    -276.776    -284.029
  N      173.857    -276.384    -280.197
  C      172.540    -276.112    -280.249
  N      171.707    -276.184    -281.315
  C      172.372    -276.607    -282.412
  C      173.720    -276.923    -282.501
  C      174.479    -276.805    -281.324
  N      175.834    -277.080    -281.269
  N      174.055    -277.312    -283.788
  C      172.903    -277.283    -284.442
  N      171.866    -276.828    -283.669
  O      173.502    -276.378    -289.463
  O      171.778    -278.327    -289.700
  H      168.516    -275.439    -282.897
  H      170.816    -278.471    -289.782
  H      172.082    -275.792    -279.322
  H      172.772    -277.607    -285.477
  H      169.915    -277.296    -283.223
  H      170.411    -274.562    -283.786
  H      170.978    -274.980    -286.101
  H      168.557    -276.882    -286.169
  H      169.979    -278.147    -287.796
  H      176.331    -276.790    -280.447
  H      176.314    -277.269    -282.148
  H      169.523    -276.536    -288.389
  P      169.351    -273.258    -287.405
  C      168.961    -271.356    -285.724
  O      168.544    -271.938    -286.946
  O      169.149    -273.685    -288.822
  O      170.865    -272.875    -287.078
  H      171.266    -272.413    -287.847
  H      168.363    -270.493    -285.517
  H      169.989    -271.068    -285.799
  H      168.847    -272.067    -284.933

 6  7  8  9  10  11  12  13  14  15  25  28  32  33  34  35 0
 6-311+G(2d,p)
 ****
 36  39  40 0
 6-311+G(2d,p)
 ****
 1  2  3  4  5  16  17  18  19  20  21  22  23  24 0
 3-21G
 ****
 26  27  29  30  31  37  38  41  42  43  44  45  46  47 0
 3-21G
 ****
 48 0
 3-21G
 ****


