%nproc=1
%NoSave
%Mem=1900MB
#P OB98/GEN NMR

erre ene a

0 1
  C      184.352      86.403     -34.230
  O      184.961      85.601     -33.230
  P      186.311      86.146     -32.555
  C      185.616      85.715     -30.101
  O      185.906      86.686     -31.098
  C      185.197      86.382     -28.797
  O      186.283      87.230     -28.333
  C      183.942      87.262     -28.912
  O      183.093      87.026     -27.780
  C      184.487      88.675     -28.792
  O      183.507      89.585     -28.303
  C      185.665      88.440     -27.848
  N      186.344      93.276     -26.568
  C      185.311      92.417     -26.252
  N      184.288      92.941     -25.542
  N      185.278      91.159     -26.602
  C      186.383      90.762     -27.283
  C      187.475      91.517     -27.647
  C      187.466      92.923     -27.303
  O      188.309      93.756     -27.632
  N      188.402      90.760     -28.314
  C      187.875      89.553     -28.357
  N      186.627      89.515     -27.787
  O      186.610      87.480     -33.386
  O      187.468      85.210     -32.600
  H      182.803      89.636     -28.977
  H      187.505      87.434     -33.773
  H      186.309      94.240     -26.287
  H      188.340      88.688     -28.815
  H      185.306      88.254     -26.827
  H      184.820      89.017     -29.779
  H      184.264      93.891     -25.208
  H      183.374      87.115     -29.837
  H      183.530      92.320     -25.280
  H      185.054      85.604     -28.037
  H      186.509      85.106     -29.923
  H      184.814      85.063     -30.465
  P      181.687      86.315     -28.092
  C      182.701      83.922     -27.926
  O      182.050      84.891     -28.725
  O      181.117      87.150     -29.331
  O      180.748      86.298     -26.932
  H      180.145      87.086     -29.367
  H      182.743      84.216     -26.873
  H      183.720      83.784     -28.295
  H      182.162      82.976     -28.006
  H      183.468      85.918     -34.587
  H      185.035      86.541     -35.042
  H      184.094      87.355     -33.815

 3  4  5  6  7  8  9  10  11  12  23  26  30  31  33  0
 6-311+G(2d,p)
 ****
 35  36  37  38 0
 6-311+G(2d,p)
 ****
 1  2  13  14  15  16  17  18  19  20  21  22  24  25  27  28  29 0
 3-21G
 ****
 32  34  39  40  41  42  43  44  45  46  47  48  49 0
 3-21G
 ****


