%nproc=1
%NoSave
%Mem=1900MB
#P OB98/GEN NMR

erre ene a

0 1
  C      187.963      40.099      63.894
  O      189.371      40.088      63.787
  P      190.185      41.053      62.808
  C      190.165      42.971      64.561
  O      189.868      42.574      63.225
  C      191.069      44.214      64.631
  O      192.402      43.861      64.205
  C      190.569      45.281      63.652
  O      189.525      46.162      64.028
  C      191.831      45.965      63.138
  O      192.109      47.192      63.819
  C      192.929      44.938      63.413
  N      197.040      44.818      60.446
  C      196.916      45.280      61.745
  N      197.976      45.962      62.231
  N      195.847      45.104      62.475
  C      194.839      44.488      61.819
  C      194.846      43.971      60.538
  C      196.048      44.138      59.757
  O      196.169      43.818      58.576
  N      193.617      43.482      60.177
  C      192.852      43.735      61.218
  N      193.537      44.379      62.222
  O      190.185      40.694      61.355
  O      191.691      40.858      63.353
  H      193.032      47.435      63.630
  H      192.292      40.923      62.583
  H      197.861      45.050      59.904
  H      191.796      43.500      61.285
  H      193.742      45.385      64.001
  H      191.726      46.220      62.073
  H      198.752      46.244      61.649
  H      190.168      44.750      62.783
  H      197.855      46.459      63.106
  H      191.169      44.570      65.658
  H      190.641      42.120      65.060
  H      189.234      43.176      65.094
  P      188.691      47.115      63.054
  C      186.762      45.468      62.721
  O      187.801      46.198      62.091
  O      189.790      47.719      62.053
  O      187.951      48.218      63.738
  H      189.460      48.549      61.668
  H      186.429      44.672      62.052
  H      185.916      46.134      62.927
  H      187.109      45.025      63.662
  H      187.654      39.367      64.611
  H      187.531      39.870      62.942
  H      187.637      41.068      64.210

 3  4  5  6  7  8  9  10  11  12  23  26  30  31 0
 6-311+G(2d,p)
 ****
 33  35  36  37  38 0
 6-311+G(2d,p)
 ****
 1  2  13  14  15  16  17  18  19  20  21  22  24  25 0
 3-21G
 ****
 27  28  29  32  34  39  40  41  42  43  44  45  46  47  48  49 0
 3-21G
 ****


