%nproc=1
%NoSave
%Mem=1900MB
#P OB98/GEN NMR

erre ene a

0 1
  C      649.932     104.279    -253.872
  O      648.963     103.985    -254.887
  P      649.456     103.211    -256.199
  C      648.919     100.774    -255.457
  O      649.918     101.742    -255.765
  C      649.248      99.438    -256.131
  O      650.630      99.065    -255.937
  C      648.416      98.277    -255.606
  O      647.138      98.217    -256.228
  C      649.264      97.091    -256.050
  O      649.024      96.817    -257.448
  C      650.689      97.617    -255.848
  N      653.127      93.957    -253.343
  C      652.713      94.012    -254.662
  N      653.002      92.934    -255.429
  N      652.078      95.031    -255.184
  C      651.878      96.041    -254.304
  C      652.238      96.101    -252.972
  C      652.924      94.970    -252.411
  O      653.303      94.850    -251.246
  N      651.852      97.287    -252.413
  C      651.279      97.955    -253.397
  N      651.257      97.232    -254.563
  O      650.850     103.932    -256.536
  O      648.510     103.284    -257.351
  H      648.163      96.361    -257.497
  H      651.027     103.879    -257.490
  H      653.607      93.148    -252.993
  H      650.874      98.954    -253.317
  H      651.382      97.270    -256.625
  H      649.022      96.175    -255.500
  H      653.530      92.141    -255.107
  H      648.348      98.298    -254.513
  H      652.741      92.970    -256.408
  H      649.068      99.549    -257.213
  H      647.939     101.127    -255.783
  H      648.857     100.668    -254.369
  P      645.871      97.878    -255.301
  C      645.385     100.293    -254.476
  O      645.853      98.997    -254.156
  O      646.334      96.547    -254.540
  O      644.594      97.677    -256.041
  H      645.559      95.985    -254.347
  H      645.285     100.867    -253.554
  H      644.408     100.242    -254.966
  H      646.101     100.797    -255.132
  H      649.457     104.795    -253.064
  H      650.704     104.895    -254.284
  H      650.359     103.366    -253.511

 3  4  5  6  7  8  9  10  11  12  23  26  30  31 0
 6-311+G(2d,p)
 ****
 33  35  36  37  38 0
 6-311+G(2d,p)
 ****
 1  2  13  14  15  16  17  18  19  20  21  22  24  25 0
 3-21G
 ****
 27  28  29  32  34  39  40  41  42  43  44  45  46  47  48  49 0
 3-21G
 ****


