%nproc=1
%NoSave
%Mem=1900MB
#P OB98/GEN NMR

erre ene a

0 1
  C      122.539    -726.570    -899.478
  O      121.876    -727.859    -899.728
  P      122.463    -729.177    -899.058
  C      120.797    -729.010    -897.028
  O      122.154    -729.167    -897.448
  C      120.700    -728.958    -895.498
  O      120.989    -730.307    -894.958
  C      121.692    -727.970    -894.788
  O      121.001    -727.531    -893.618
  C      122.847    -728.929    -894.418
  O      123.663    -728.381    -893.378
  C      122.081    -730.176    -893.998
  N      122.854    -731.428    -893.998
  C      122.222    -732.555    -893.448
  O      121.090    -732.539    -892.898
  N      122.955    -733.695    -893.478
  C      124.229    -733.839    -893.888
  O      124.820    -734.896    -893.858
  C      124.856    -732.627    -894.458
  C      124.165    -731.494    -894.398
  O      124.062    -728.855    -899.038
  O      122.171    -730.462    -899.768
  H      123.969    -727.476    -893.738
  H      124.563    -729.647    -899.348
  H      122.483    -734.512    -893.058
  H      125.878    -732.686    -894.818
  H      124.625    -730.608    -894.848
  H      121.584    -730.032    -893.008
  H      123.487    -729.097    -895.298
  H      121.993    -727.188    -895.468
  H      119.626    -728.741    -895.238
  H      120.228    -729.825    -897.438
  H      120.407    -728.063    -897.468
  P      120.488    -725.965    -893.598
  C      118.588    -726.239    -891.818
  O      118.962    -725.998    -893.158
  O      120.416    -725.674    -895.188
  O      121.428    -725.034    -892.838
  H      120.006    -726.387    -895.698
  H      119.273    -725.686    -891.098
  H      118.642    -727.303    -891.608
  H      117.614    -725.875    -891.648
  H      122.019    -725.794    -900.000
  H      123.551    -726.616    -899.823
  H      122.530    -726.362    -898.428

 3  4  5  6  7  8  9  10  11  12  13  23  28  29  30  31  32 0
 6-311+G(2d,p)
 ****
 33  34 0
 6-311+G(2d,p)
 ****
 1  2  14  15  16  17  18  19  20  21  22  24  25  26 0
 3-21G
 ****
 27  35  36  37  38  39  40  41  42  43  44  45 0
 3-21G
 ****


