%nproc=1
%NoSave
%Mem=1900MB
#P OB98/GEN NMR

erre ene a

0 1
  C       77.870     -42.111      11.655
  O       77.659     -40.751      11.252
  P       78.068     -40.183       9.808
  C       75.657     -40.003       8.882
  O       76.842     -39.307       9.251
  C       74.438     -39.415       9.597
  O       74.425     -39.820      10.986
  C       74.387     -37.895       9.653
  O       74.057     -37.318       8.403
  C       73.342     -37.672      10.744
  O       72.011     -37.730      10.213
  C       73.586     -38.869      11.682
  N       74.176     -38.484      12.953
  C       73.312     -37.936      13.905
  O       72.133     -37.723      13.627
  N       73.813     -37.628      15.146
  C       75.083     -37.754      15.378
  N       75.519     -37.451      16.630
  C       76.050     -38.199      14.357
  C       75.533     -38.547      13.180
  O       78.536     -41.233       8.855
  O       79.216     -39.104      10.087
  H       79.788     -39.025       9.300
  H       71.405     -37.499      10.944
  H       77.105     -38.250      14.579
  H       76.171     -38.899      12.377
  H       72.645     -39.400      11.869
  H       73.454     -36.696      11.228
  H       75.357     -37.514       9.996
  H       73.535     -39.809       9.110
  H       74.828     -37.159      17.310
  H       75.766     -41.053       9.175
  H       76.482     -37.537      16.921
  H       75.535     -39.956       7.795
  P       74.333     -35.748       8.232
  C       76.174     -36.002       6.421
  O       74.890     -35.509       6.750
  O       75.607     -35.484       9.168
  O       73.187     -34.873       8.621
  H       75.509     -34.628       9.621
  H       76.206     -36.204       5.347
  H       76.405     -36.923       6.963
  H       76.922     -35.242       6.659
  H       77.516     -42.245      12.656
  H       78.915     -42.338      11.612
  H       77.336     -42.765      10.997

 3  4  5  6  7  8  9  10  11  12  13  24  27  28  29  30  32 0
 6-311+G(2d,p)
 ****
 34  35 0
 6-311+G(2d,p)
 ****
 1  2  14  15  16  17  18  19  20  21  22  23  25  26 0
 3-21G
 ****
 31  33  36  37  38  39  40  41  42  43  44  45  46 0
 3-21G
 ****


