%nproc=1
%NoSave
%Mem=1900MB
#P OB98/GEN NMR

erre ene a

0 1
  C      -98.668     -25.342      22.612
  O      -99.284     -24.796      23.761
  H      -99.116     -24.926      21.705
  H      -97.605     -25.087      22.630
  H      -98.770     -26.431      22.614
  P     -100.875     -24.972      23.865
  C     -101.670     -22.509      23.996
  O     -101.418     -23.714      24.703
  C     -102.584     -21.603      24.811
  O     -103.843     -22.260      25.062
  C     -102.047     -21.225      26.186
  O     -101.077     -20.190      26.112
  C     -103.323     -20.751      26.866
  O     -103.612     -19.399      26.465
  C     -104.379     -21.708      26.293
  N     -108.193     -24.601      28.149
  C     -108.185     -23.584      27.258
  N     -107.139     -22.855      26.821
  C     -105.996     -23.273      27.388
  C     -105.848     -24.295      28.311
  C     -107.016     -24.972      28.701
  N     -107.015     -25.996      29.622
  N     -104.524     -24.450      28.660
  C     -103.880     -23.538      27.961
  N     -104.728     -22.797      27.181
  O     -101.050     -26.196      24.885
  O     -101.576     -25.233      22.574
  H     -102.825     -18.867      26.688
  H     -101.821     -26.727      24.613
  H     -109.152     -23.322      26.836
  H     -102.808     -23.383      27.983
  H     -105.300     -21.176      26.028
  H     -103.258     -20.761      27.957
  H     -101.659     -22.103      26.716
  H     -102.789     -20.705      24.214
  H     -102.154     -22.741      23.041
  H     -107.839     -26.567      29.712
  H     -106.125     -26.273      30.024
  H     -100.716     -22.009      23.798
  P      -99.534     -20.626      26.021
  C      -98.452     -19.875      28.257
  O      -98.730     -19.551      26.899
  O      -99.137     -20.244      24.519
  O      -99.262     -22.060      26.320
  H      -98.391     -20.799      24.221
  H      -97.915     -19.070      28.713
  H      -97.861     -20.766      28.297
  H      -99.371     -20.032      28.782

 6  7  8  9  10  11  12  13  14  15  25  28  32  33  34  35 0
 6-311+G(2d,p)
 ****
 36  39  40 0
 6-311+G(2d,p)
 ****
 1  2  3  4  5  16  17  18  19  20  21  22  23  24 0
 3-21G
 ****
 26  27  29  30  31  37  38  41  42  43  44  45  46  47  48 0
 3-21G
 ****


