%nproc=1
%NoSave
%Mem=1900MB
#P OB98/GEN NMR

erre ene a

0 1
  C      133.134    -270.394     157.739
  O      131.762    -270.726     157.802
  H      133.633    -270.797     158.624
  H      133.262    -269.308     157.725
  H      133.586    -270.832     156.845
  P      130.826    -270.124     156.642
  C      129.272    -272.215     156.500
  O      129.414    -270.855     156.882
  C      128.049    -272.822     157.178
  O      128.182    -272.759     158.616
  C      126.733    -272.113     156.866
  O      126.209    -272.438     155.590
  C      125.869    -272.662     157.988
  O      125.508    -274.024     157.698
  C      126.851    -272.586     159.176
  N      126.763    -271.318     159.910
  C      126.004    -271.324     161.084
  O      125.442    -272.351     161.466
  N      125.866    -270.153     161.789
  C      126.454    -269.074     161.371
  N      126.278    -267.943     162.109
  C      127.272    -269.024     160.149
  C      127.385    -270.167     159.475
  O      131.369    -270.840     155.317
  O      130.758    -268.636     156.560
  H      124.687    -274.206     158.193
  H      130.764    -270.650     154.560
  H      127.732    -268.098     159.833
  H      127.975    -270.209     158.565
  H      126.681    -273.409     159.883
  H      124.940    -272.110     158.128
  H      126.823    -271.028     156.986
  H      128.005    -273.882     156.900
  H      125.661    -267.996     162.911
  H      130.177    -272.753     156.801
  H      126.566    -267.028     161.789
  H      129.159    -272.289     155.414
  P      125.397    -271.293     154.814
  C      126.559    -271.803     152.541
  O      125.341    -271.720     153.272
  O      126.411    -270.058     154.820
  O      124.077    -270.935     155.426
  H      125.931    -269.211     154.887
  H      126.351    -272.098     151.534
  H      127.201    -272.526     152.999
  H      127.040    -270.847     152.540

 6  7  8  9  10  11  12  13  14  15  16  26  30  31  32  33  35 0
 6-311+G(2d,p)
 ****
 37  38 0
 6-311+G(2d,p)
 ****
 1  2  3  4  5  17  18  19  20  21  22  23  24  25 0
 3-21G
 ****
 27  28  29  34  36  39  40  41  42  43  44  45  46 0
 3-21G
 ****


