%nproc=1
%NoSave
%Mem=1900MB
#P OB98/GEN NMR

erre ene a

0 1
  C     -153.097    -148.310    -105.697
  O     -153.087    -149.688    -105.387
  H     -153.088    -147.743    -104.764
  H     -153.996    -148.045    -106.261
  H     -152.205    -148.044    -106.273
  P     -153.212    -150.740    -106.589
  C     -150.716    -150.926    -107.245
  O     -152.002    -150.435    -107.596
  C     -150.406    -152.229    -107.993
  O     -150.413    -151.965    -109.424
  C     -149.033    -152.832    -107.647
  O     -149.140    -154.253    -107.795
  C     -148.164    -152.244    -108.741
  O     -146.929    -152.907    -108.831
  C     -149.119    -152.347    -109.936
  N     -148.705    -151.516    -111.056
  C     -147.914    -152.137    -112.027
  O     -147.590    -153.317    -111.903
  N     -147.482    -151.394    -113.097
  C     -147.756    -150.129    -113.155
  N     -147.286    -149.447    -114.238
  C     -148.541    -149.423    -112.121
  C     -148.982    -150.171    -111.113
  O     -154.555    -150.836    -107.233
  O     -152.785    -152.136    -105.926
  H     -147.047    -153.833    -109.136
  H     -153.579    -152.684    -105.776
  H     -148.728    -148.362    -112.209
  H     -149.564    -149.741    -110.302
  H     -149.196    -153.388    -110.283
  H     -147.941    -151.191    -108.531
  H     -148.699    -152.580    -106.636
  H     -151.213    -152.946    -107.799
  H     -146.745    -149.970    -114.916
  H     -150.714    -151.103    -106.165
  H     -147.420    -148.457    -114.379
  H     -149.950    -150.178    -107.479
  P     -148.655    -155.284    -106.665
  C     -150.615    -155.091    -104.997
  O     -149.236    -154.827    -105.245
  O     -147.185    -155.543    -106.669
  O     -149.457    -156.642    -106.973
  H     -148.913    -157.405    -106.698
  H     -150.875    -154.739    -104.021
  H     -150.793    -156.145    -105.056
  H     -151.212    -154.587    -105.728

 6  7  8  9  10  11  12  13  14  15  16  26  30  31  32  33  35 0
 6-311+G(2d,p)
 ****
 37  38 0
 6-311+G(2d,p)
 ****
 1  2  3  4  5  17  18  19  20  21  22  23  24  25 0
 3-21G
 ****
 27  28  29  34  36  39  40  41  42  43  44  45  46 0
 3-21G
 ****


