%nproc=1
%NoSave
%Mem=1900MB
#P OB98/GEN NMR

erre ene a

0 1
  C       15.457       7.005     -88.960
  O       15.921       7.425     -90.224
  H       14.990       6.023     -89.070
  H       14.709       7.712     -88.591
  H       16.275       6.927     -88.240
  P       17.015       8.591     -90.294
  C       15.356      10.007     -91.672
  O       16.680       9.500     -91.575
  C       14.961      10.300     -93.120
  O       13.566      10.666     -93.193
  C       15.739      11.479     -93.707
  O       17.014      11.162     -94.233
  C       14.796      11.955     -94.809
  O       15.003      11.208     -96.020
  C       13.413      11.656     -94.224
  N       10.676      15.863     -95.178
  C       11.207      14.951     -96.068
  N       11.036      15.228     -97.380
  N       11.860      13.881     -95.701
  C       12.036      13.785     -94.362
  C       11.569      14.633     -93.382
  C       10.799      15.787     -93.798
  O       10.313      16.630     -93.049
  N       11.943      14.209     -92.130
  C       12.696      13.152     -92.358
  N       12.760      12.840     -93.695
  O       18.350       7.828     -90.752
  O       17.234       9.341     -89.016
  H       15.960      11.068     -96.133
  H       19.133       8.314     -90.439
  H       10.159      16.655     -95.516
  H       13.193      12.564     -91.593
  H       12.742      11.229     -94.980
  H       14.962      13.008     -95.055
  H       10.643      16.096     -97.711
  H       15.833      12.280     -92.967
  H       11.628      14.738     -98.053
  H       15.089       9.391     -93.720
  H       15.328      10.928     -91.085
  H       14.648       9.310     -91.216
  P       18.292      12.027     -93.810
  C       18.726      12.250     -96.366
  O       19.271      12.067     -95.078
  O       19.045      11.066     -92.776
  O       17.982      13.355     -93.209
  H       18.806      11.303     -91.860
  H       19.514      12.252     -97.090
  H       18.205      13.184     -96.404
  H       18.045      11.453     -96.582

 6  7  8  9  10  11  12  13  14  15  26  29  33  34 0
 6-311+G(2d,p)
 ****
 36  38  39  40  41 0
 6-311+G(2d,p)
 ****
 1  2  3  4  5  16  17  18  19  20  21  22  23  24  25 0
 3-21G
 ****
 27  28  30  31  32  35  37  42  43  44  45  46  47 0
 3-21G
 ****
 48  49 0
 3-21G
 ****


