%nproc=1
%NoSave
%Mem=1900MB
#P OB98/GEN NMR

erre ene a

0 1
  C       10.565      86.080     -17.329
  O       11.358      87.250     -17.301
  H       10.997      85.347     -16.644
  H       10.559      85.655     -18.336
  H        9.539      86.295     -17.010
  P       10.832      88.559     -18.063
  C       10.106      89.107     -20.480
  O       10.808      88.211     -19.631
  C        9.937      88.490     -21.869
  O        9.165      87.273     -21.782
  C        9.200      89.380     -22.862
  O       10.040      90.418     -23.336
  C        8.788      88.357     -23.909
  O        9.888      88.056     -24.790
  C        8.444      87.133     -23.026
  N        7.007      86.983     -22.785
  C        6.198      86.884     -23.912
  O        6.633      86.950     -25.060
  N        4.852      86.717     -23.670
  C        4.255      86.725     -22.445
  O        3.041      86.630     -22.282
  C        5.154      86.876     -21.288
  C        6.471      86.992     -21.510
  O       11.525      89.838     -17.719
  O        9.274      88.616     -17.683
  H        9.986      88.827     -25.384
  H        9.131      89.269     -16.973
  H        4.252      86.654     -24.474
  H        4.714      86.891     -20.299
  H        7.152      87.104     -20.672
  H        8.809      86.208     -23.494
  H        7.965      88.698     -24.536
  H        8.291      89.792     -22.400
  H       10.936      88.225     -22.244
  H       10.684      90.039     -20.563
  H        9.128      89.328     -20.031
  P        9.424      91.689     -24.085
  C        8.377      92.220     -26.365
  O        9.005      91.223     -25.566
  O       10.261      92.927     -24.035
  O        8.011      91.922     -23.364
  H        8.063      92.701     -22.782
  H        8.140      91.811     -27.325
  H        9.041      93.051     -26.485
  H        7.479      92.548     -25.885

 6  7  8  9  10  11  12  13  14  15  16  26  31  32  33  34  35 0
 6-311+G(2d,p)
 ****
 36  37 0
 6-311+G(2d,p)
 ****
 1  2  3  4  5  17  18  19  20  21  22  23  24  25 0
 3-21G
 ****
 27  28  29  30  38  39  40  41  42  43  44  45 0
 3-21G
 ****


