%nproc=1
%NoSave
%Mem=1900MB
#P OB98/GEN NMR

erre ene a

0 1
  C       -0.711    -168.686     -97.452
  O        0.129    -167.721     -96.843
  H       -0.452    -168.753     -98.514
  H       -1.762    -168.399     -97.364
  H       -0.550    -169.664     -96.991
  P       -0.233    -167.235     -95.356
  C       -2.334    -166.255     -94.215
  O       -1.733    -166.658     -95.447
  C       -3.783    -165.814     -94.426
  O       -4.630    -166.953     -94.702
  C       -4.414    -165.147     -93.210
  O       -3.858    -163.899     -92.869
  C       -5.897    -165.237     -93.537
  O       -6.328    -164.192     -94.410
  C       -5.965    -166.602     -94.270
  N       -6.558    -167.648     -93.443
  C       -7.948    -167.699     -93.426
  O       -8.666    -166.909     -94.042
  N       -8.499    -168.679     -92.642
  C       -7.813    -169.557     -91.857
  O       -8.368    -170.400     -91.159
  C       -6.344    -169.431     -91.884
  C       -5.791    -168.495     -92.667
  O        0.745    -166.286     -94.728
  O       -0.419    -168.600     -94.539
  H       -5.732    -164.207     -95.185
  H       -0.402    -168.439     -93.564
  H       -9.505    -168.741     -92.629
  H       -5.770    -170.104     -91.262
  H       -4.710    -168.384     -92.705
  H       -6.571    -166.509     -95.186
  H       -6.520    -165.190     -92.640
  H       -4.248    -165.798     -92.340
  H       -3.815    -165.156     -95.304
  H       -1.754    -165.413     -93.822
  H       -2.290    -167.085     -93.501
  P       -3.779    -163.339     -91.376
  C       -5.467    -162.342     -89.641
  O       -5.270    -163.058     -90.853
  O       -2.730    -162.311     -91.097
  O       -3.383    -164.675     -90.550
  H       -2.808    -164.393     -89.807
  H       -6.515    -162.248     -89.448
  H       -5.032    -161.368     -89.727
  H       -5.002    -162.870     -88.835

 6  7  8  9  10  11  12  13  14  15  16  26  31  32  33  34  35 0
 6-311+G(2d,p)
 ****
 36  37 0
 6-311+G(2d,p)
 ****
 1  2  3  4  5  17  18  19  20  21  22  23  24  25 0
 3-21G
 ****
 27  28  29  30  38  39  40  41  42  43  44  45 0
 3-21G
 ****


