%nproc=1
%NoSave
%Mem=1900MB
#P OB98/GEN NMR

erre ene a

0 1
  C      220.756     -59.190     158.109
  O      219.488     -58.668     157.683
  P      219.106     -57.111     157.749
  C      218.156     -55.338     156.118
  O      218.355     -56.722     156.383
  C      218.019     -55.086     154.611
  O      219.275     -55.357     153.944
  C      217.013     -55.976     153.891
  O      215.676     -55.613     154.172
  C      217.429     -55.771     152.436
  O      216.836     -54.590     151.882
  C      218.955     -55.587     152.549
  N      219.706     -56.713     152.017
  C      219.963     -56.702     150.644
  O      219.496     -55.816     149.928
  N      220.735     -57.709     150.115
  C      221.120     -58.692     150.870
  N      221.896     -59.648     150.294
  C      220.756     -58.809     152.296
  C      220.057     -57.793     152.798
  O      220.258     -56.215     158.075
  O      217.958     -57.001     158.861
  H      217.968     -56.109     159.253
  H      215.865     -54.700     151.951
  H      221.065     -59.663     152.874
  H      219.758     -57.791     153.841
  H      219.264     -54.671     152.030
  H      217.130     -56.613     151.802
  H      217.188     -57.020     154.176
  H      217.768     -54.027     154.465
  H      222.138     -59.532     149.316
  H      219.025     -54.784     156.492
  H      222.269     -60.443     150.794
  H      217.263     -54.993     156.654
  P      214.893     -56.506     155.250
  C      212.900     -56.072     156.862
  O      213.551     -55.728     155.650
  O      215.807     -56.392     156.567
  O      214.697     -57.930     154.851
  H      215.831     -57.256     157.022
  H      212.348     -55.201     157.220
  H      213.611     -56.387     157.626
  H      212.190     -56.881     156.666
  H      220.771     -60.251     157.968
  H      220.904     -58.966     159.145
  H      221.538     -58.742     157.532

 3  4  5  6  7  8  9  10  11  12  13  24  27  28  29  30  32 0
 6-311+G(2d,p)
 ****
 34  35 0
 6-311+G(2d,p)
 ****
 1  2  14  15  16  17  18  19  20  21  22  23  25  26 0
 3-21G
 ****
 31  33  36  37  38  39  40  41  42  43  44  45  46 0
 3-21G
 ****


