%nproc=1
%NoSave
%Mem=1900MB
#P OB98/GEN NMR

erre ene a

0 1
  C      148.147    -440.290      52.357
  O      147.559    -439.599      51.277
  H      147.694    -441.283      52.424
  H      147.951    -439.751      53.288
  H      149.226    -440.405      52.220
  P      148.315    -438.325      50.675
  C      150.148    -439.819      49.642
  O      149.864    -438.715      50.491
  C      151.565    -439.747      49.070
  O      151.871    -440.957      48.343
  C      151.732    -438.599      48.075
  O      152.015    -437.337      48.647
  C      152.901    -439.091      47.227
  O      154.157    -438.749      47.838
  C      152.702    -440.608      47.221
  N      153.170    -441.227      42.171
  C      154.018    -440.583      43.050
  N      155.098    -439.980      42.505
  N      153.812    -440.526      44.340
  C      152.645    -441.090      44.729
  C      151.717    -441.743      43.950
  C      151.983    -441.850      42.528
  O      151.259    -442.403      41.706
  N      150.655    -442.190      44.699
  C      150.905    -441.742      45.911
  N      152.115    -441.093      45.987
  O      148.363    -437.298      51.907
  O      147.666    -437.699      49.479
  H      154.155    -439.082      48.753
  H      148.412    -436.384      51.577
  H      153.392    -441.264      41.193
  H      150.261    -441.887      46.775
  H      153.656    -441.137      47.354
  H      152.900    -438.635      46.232
  H      155.237    -439.897      41.510
  H      150.850    -438.524      47.431
  H      155.592    -439.285      43.068
  H      152.284    -439.675      49.895
  H      149.417    -439.789      48.832
  H      150.000    -440.758      50.180
  P      151.763    -435.998      47.803
  C      149.876    -435.155      49.385
  O      150.249    -435.548      48.084
  O      151.732    -436.531      46.295
  O      152.786    -434.932      47.994
  H      152.603    -436.415      45.878
  H      148.840    -434.889      49.394
  H      150.463    -434.312      49.685
  H      150.042    -435.965      50.064

 6  7  8  9  10  11  12  13  14  15  26  29  33  34 0
 6-311+G(2d,p)
 ****
 36  38  39  40  41 0
 6-311+G(2d,p)
 ****
 1  2  3  4  5  16  17  18  19  20  21  22  23  24  25 0
 3-21G
 ****
 27  28  30  31  32  35  37  42  43  44  45  46  47 0
 3-21G
 ****
 48  49 0
 3-21G
 ****


