%nproc=1
%NoSave
%Mem=1900MB
#P OB98/GEN NMR

erre ene a

0 1
  C     -294.388     -24.167     255.045
  O     -293.307     -25.069     255.195
  H     -294.266     -23.628     254.100
  H     -294.388     -23.442     255.864
  H     -295.335     -24.715     255.024
  P     -293.310     -25.977     256.519
  C     -294.199     -27.835     254.949
  O     -294.349     -27.154     256.187
  C     -293.227     -29.009     255.099
  O     -293.683     -29.916     256.118
  C     -293.059     -29.848     253.842
  O     -292.151     -29.236     252.936
  C     -292.486     -31.132     254.431
  O     -291.079     -30.964     254.688
  C     -293.249     -31.258     255.763
  N     -294.895     -36.092     255.183
  C     -293.685     -35.524     254.988
  N     -293.331     -34.228     255.116
  C     -294.383     -33.481     255.496
  C     -295.679     -33.917     255.729
  C     -295.923     -35.295     255.570
  N     -297.160     -35.867     255.775
  N     -296.493     -32.863     256.097
  C     -295.685     -31.813     256.135
  N     -294.410     -32.134     255.745
  O     -293.523     -25.251     257.803
  O     -291.898     -26.723     256.384
  H     -290.628     -30.904     253.821
  H     -291.723     -26.955     255.455
  H     -292.890     -36.203     254.690
  H     -295.978     -30.822     256.453
  H     -292.599     -31.619     256.570
  H     -292.587     -31.983     253.753
  H     -294.027     -30.069     253.372
  H     -292.262     -28.607     255.434
  H     -293.836     -27.149     254.178
  H     -297.286     -36.820     255.473
  H     -297.945     -35.256     255.939
  H     -295.188     -28.201     254.648
  P     -292.457     -29.204     251.363
  C     -292.751     -26.655     251.542
  O     -293.323     -27.876     251.089
  O     -293.047     -30.458     250.812
  O     -291.051     -28.864     250.688
  H     -290.942     -29.365     249.860
  H     -293.409     -25.844     251.308
  H     -291.809     -26.501     251.058
  H     -292.604     -26.701     252.601

 6  7  8  9  10  11  12  13  14  15  25  28  32  33  34  35 0
 6-311+G(2d,p)
 ****
 36  39  40 0
 6-311+G(2d,p)
 ****
 1  2  3  4  5  16  17  18  19  20  21  22  23  24 0
 3-21G
 ****
 26  27  29  30  31  37  38  41  42  43  44  45  46  47 0
 3-21G
 ****
 48 0
 3-21G
 ****


