%nproc=1
%NoSave
%Mem=1900MB
#P OB98/GEN NMR

erre ene a

0 1
  C      192.243     103.535     111.518
  O      192.607     102.176     111.696
  P      192.208     101.486     113.090
  C      194.732     101.187     113.670
  O      193.457     101.677     114.077
  C      195.833     102.146     114.120
  O      195.388     103.513     113.975
  C      196.234     102.006     115.584
  O      197.047     100.861     115.784
  C      196.942     103.339     115.807
  O      198.273     103.286     115.265
  C      196.074     104.305     114.984
  N      195.389     107.757     118.705
  C      196.508     107.243     118.146
  N      196.608     106.309     117.174
  C      195.392     105.908     116.775
  C      194.165     106.324     117.266
  C      194.187     107.297     118.280
  N      193.044     107.814     118.850
  N      193.131     105.670     116.628
  C      193.725     104.881     115.755
  N      195.090     105.001     115.794
  O      192.244      99.925     112.744
  O      190.884     101.908     113.647
  H      198.201     103.446     114.303
  H      191.566      99.441     113.254
  H      197.447     107.634     118.526
  H      193.214     104.215     115.073
  H      196.670     105.062     114.463
  H      197.030     103.609     116.867
  H      195.344     101.945     116.224
  H      196.702     101.996     113.468
  H      194.760     101.105     112.578
  H      193.151     108.394     119.671
  H      192.162     107.370     118.633
  H      194.880     100.192     114.098
  P      196.505      99.741     116.802
  C      198.369     100.689     118.300
  O      197.021     100.252     118.236
  O      197.487      98.520     116.491
  O      195.049      99.451     116.699
  H      198.422      98.795     116.479
  H      198.569     101.055     119.310
  H      198.537     101.503     117.587
  H      199.043      99.857     118.084
  H      192.566     103.867     110.554
  H      192.708     104.131     112.275
  H      191.180     103.632     111.591

 3  4  5  6  7  8  9  10  11  12  22  25  29  30  31  32 0
 6-311+G(2d,p)
 ****
 33  36  37 0
 6-311+G(2d,p)
 ****
 1  2  13  14  15  16  17  18  19  20  21  23  24  26 0
 3-21G
 ****
 27  28  34  35  38  39  40  41  42  43  44  45  46  47  48 0
 3-21G
 ****


