%nproc=1
%NoSave
%Mem=1900MB
#P OB98/GEN NMR

erre ene a

0 1
  C     -361.592    -473.882     392.509
  O     -360.205    -473.883     392.246
  H     -361.754    -473.535     393.531
  H     -361.991    -474.898     392.414
  H     -362.125    -473.215     391.825
  P     -359.709    -474.037     390.731
  C     -357.465    -472.779     390.980
  O     -358.102    -474.029     390.763
  C     -355.938    -472.944     391.012
  O     -355.606    -474.054     391.886
  C     -355.382    -473.286     389.629
  O     -354.035    -472.840     389.459
  C     -355.400    -474.808     389.619
  O     -354.480    -475.377     388.688
  C     -355.069    -475.117     391.082
  N     -354.692    -480.198     390.877
  C     -354.069    -479.253     390.092
  N     -353.226    -479.713     389.135
  N     -354.264    -477.963     390.226
  C     -355.182    -477.649     391.178
  C     -355.881    -478.500     391.992
  C     -355.633    -479.928     391.862
  O     -356.178    -480.808     392.513
  N     -356.728    -477.815     392.830
  C     -356.549    -476.546     392.513
  N     -355.599    -476.389     391.529
  O     -360.047    -472.614     390.077
  O     -360.327    -475.161     389.954
  H     -353.580    -475.210     389.025
  H     -360.115    -472.698     389.112
  H     -354.484    -481.177     390.756
  H     -357.062    -475.712     392.963
  H     -353.985    -475.144     391.233
  H     -356.402    -475.134     389.331
  H     -353.211    -480.684     388.881
  H     -355.989    -472.885     388.817
  H     -353.018    -479.068     388.375
  H     -355.475    -472.053     391.441
  H     -357.831    -472.393     391.934
  H     -357.757    -472.062     390.207
  P     -353.772    -471.498     388.631
  C     -351.225    -471.552     389.385
  O     -352.199    -471.309     388.384
  O     -354.141    -470.336     389.652
  O     -354.557    -471.399     387.360
  H     -354.911    -469.830     389.343
  H     -350.250    -471.359     388.988
  H     -351.286    -472.572     389.701
  H     -351.404    -470.908     390.221

 6  7  8  9  10  11  12  13  14  15  26  29  33  34 0
 6-311+G(2d,p)
 ****
 36  38  39  40  41 0
 6-311+G(2d,p)
 ****
 1  2  3  4  5  16  17  18  19  20  21  22  23  24  25 0
 3-21G
 ****
 27  28  30  31  32  35  37  42  43  44  45  46  47 0
 3-21G
 ****
 48  49 0
 3-21G
 ****


