%nproc=1
%NoSave
%Mem=1900MB
#P OB98/GEN NMR

erre ene a

0 1
  C      607.173    -505.928     932.077
  O      608.512    -506.390     932.032
  H      606.497    -506.758     932.305
  H      607.082    -505.169     932.858
  H      606.900    -505.484     931.115
  P      608.849    -507.539     930.971
  C      611.054    -506.511     930.070
  O      609.708    -506.858     929.799
  C      611.987    -507.159     929.049
  O      611.664    -506.619     927.747
  C      613.486    -506.936     929.307
  O      614.160    -508.197     929.435
  C      613.993    -506.238     928.053
  O      615.272    -506.707     927.624
  C      612.909    -506.540     927.019
  N      615.460    -504.430     923.154
  C      615.565    -505.641     923.725
  N      614.794    -506.188     924.685
  C      613.795    -505.344     925.022
  C      613.539    -504.085     924.499
  C      614.446    -503.624     923.532
  N      614.368    -502.361     922.976
  N      612.425    -503.525     925.104
  C      612.043    -504.396     926.004
  N      612.850    -505.514     925.995
  O      607.437    -507.837     930.283
  O      609.451    -508.777     931.548
  H      615.871    -506.622     928.390
  H      607.275    -508.802     930.255
  H      616.392    -506.266     923.381
  H      611.233    -504.275     926.701
  H      613.076    -507.511     926.525
  H      614.049    -505.163     928.245
  H      613.673    -506.326     930.206
  H      611.762    -508.236     929.011
  H      611.324    -506.874     931.073
  H      615.117    -502.063     922.375
  H      613.684    -501.709     923.339
  H      611.159    -505.417     930.061
  P      615.193    -508.348     930.654
  C      613.397    -508.425     932.540
  O      614.498    -507.725     931.956
  O      616.329    -507.270     930.298
  O      615.757    -509.716     930.815
  H      617.172    -507.540     930.690
  H      613.045    -507.886     933.395
  H      613.714    -509.402     932.840
  H      612.608    -508.511     931.823

 6  7  8  9  10  11  12  13  14  15  25  28  32  33  34  35 0
 6-311+G(2d,p)
 ****
 36  39  40 0
 6-311+G(2d,p)
 ****
 1  2  3  4  5  16  17  18  19  20  21  22  23  24 0
 3-21G
 ****
 26  27  29  30  31  37  38  41  42  43  44  45  46  47  48 0
 3-21G
 ****


