%nproc=1
%NoSave
%Mem=1900MB
#P OB98/GEN NMR

erre ene a

0 1
  C     -122.979    -346.497    -316.391
  O     -122.792    -346.611    -314.978
  P     -123.510    -347.824    -314.221
  C     -121.266    -349.072    -313.821
  O     -122.579    -349.121    -314.354
  C     -120.447    -350.277    -314.301
  O     -120.093    -350.153    -315.695
  C     -119.141    -350.464    -313.544
  O     -119.334    -351.156    -312.326
  C     -118.363    -351.338    -314.524
  O     -118.794    -352.713    -314.393
  C     -118.791    -350.775    -315.888
  N     -114.744    -350.079    -318.835
  C     -115.445    -351.237    -318.542
  N     -115.003    -352.373    -319.131
  N     -116.483    -351.275    -317.744
  C     -116.812    -350.055    -317.247
  C     -116.196    -348.850    -317.457
  C     -115.040    -348.822    -318.331
  O     -114.367    -347.838    -318.615
  N     -116.816    -347.843    -316.771
  C     -117.824    -348.433    -316.156
  N     -117.859    -349.788    -316.402
  O     -124.741    -348.170    -315.187
  O     -123.980    -347.497    -312.833
  H     -118.211    -353.243    -314.960
  H     -125.471    -348.557    -314.674
  H     -113.947    -350.113    -319.452
  H     -118.549    -347.928    -315.534
  H     -118.902    -351.553    -316.646
  H     -117.289    -351.330    -314.337
  H     -114.247    -352.407    -319.791
  H     -118.618    -349.509    -313.408
  H     -115.530    -353.224    -318.956
  H     -121.067    -351.173    -314.177
  H     -121.301    -349.061    -312.727
  H     -120.795    -348.125    -314.112
  P     -119.232    -350.317    -310.956
  C     -121.708    -350.726    -310.295
  O     -120.714    -349.790    -310.656
  O     -118.436    -349.002    -311.414
  O     -118.540    -351.010    -309.843
  H     -117.894    -348.661    -310.671
  H     -122.597    -350.178    -309.967
  H     -121.358    -351.355    -309.473
  H     -121.970    -351.346    -311.157
  H     -122.443    -345.645    -316.754
  H     -124.021    -346.380    -316.605
  H     -122.613    -347.380    -316.872

 3  4  5  6  7  8  9  10  11  12  23  26  30  31 0
 6-311+G(2d,p)
 ****
 33  35  36  37  38 0
 6-311+G(2d,p)
 ****
 1  2  13  14  15  16  17  18  19  20  21  22  24  25 0
 3-21G
 ****
 27  28  29  32  34  39  40  41  42  43  44  45  46  47  48  49 0
 3-21G
 ****


