%nproc=1
%NoSave
%Mem=1900MB
#P OB98/GEN NMR

erre ene a

0 1
  C      -54.355      59.449      24.112
  O      -53.126      59.998      23.680
  H      -54.157      58.727      24.907
  H      -54.850      58.936      23.283
  H      -55.005      60.236      24.503
  P      -53.200      61.105      22.522
  C      -50.639      61.424      22.833
  O      -51.717      61.237      21.926
  C      -49.389      60.738      22.293
  O      -49.501      59.307      22.472
  C      -49.168      60.944      20.801
  O      -48.616      62.214      20.506
  C      -48.236      59.787      20.480
  O      -46.874      60.112      20.785
  C      -48.741      58.681      21.412
  N      -48.738      55.082      17.793
  C      -47.744      55.820      18.332
  N      -47.826      56.753      19.304
  C      -49.090      56.868      19.744
  C      -50.205      56.181      19.294
  C      -49.994      55.245      18.269
  N      -51.009      54.511      17.703
  N      -51.337      56.603      19.962
  C      -50.913      57.522      20.806
  N      -49.563      57.713      20.713
  O      -53.406      62.467      23.337
  O      -54.276      60.893      21.512
  H      -46.678      60.943      20.310
  H      -54.349      62.718      23.318
  H      -46.754      55.648      17.920
  H      -51.540      58.077      21.493
  H      -47.920      58.129      21.884
  H      -48.287      59.529      19.423
  H      -50.110      60.798      20.257
  H      -48.521      61.087      22.868
  H      -50.901      60.987      23.803
  H      -50.466      62.497      22.962
  H      -50.796      53.908      16.925
  H      -51.965      54.708      17.971
  P      -49.001      62.886      19.103
  C      -48.531      65.274      20.039
  O      -48.259      64.305      19.037
  O      -50.545      63.271      19.273
  O      -48.774      62.014      17.915
  H      -51.011      63.156      18.423
  H      -47.957      66.156      19.847
  H      -48.268      64.879      20.998
  H      -49.573      65.517      20.027

 6  7  8  9  10  11  12  13  14  15  25  28  32  33  34  35 0
 6-311+G(2d,p)
 ****
 36  37  40 0
 6-311+G(2d,p)
 ****
 1  2  3  4  5  16  17  18  19  20  21  22  23  24 0
 3-21G
 ****
 26  27  29  30  31  38  39 41  42  43  44  45  46  47  48 0
 3-21G
 ****


