%nproc=1
%NoSave
%Mem=1900MB
#P OB98/GEN NMR

erre ene a

0 1
  C      153.018    -664.975     -65.117
  O      154.334    -664.586     -64.786
  H      152.948    -666.065     -65.052
  H      152.784    -664.669     -66.140
  H      152.291    -664.541     -64.423
  P      154.630    -663.043     -64.484
  C      154.463    -663.085     -61.908
  O      155.318    -662.970     -63.037
  C      155.277    -663.321     -60.631
  O      155.849    -664.659     -60.673
  C      156.449    -662.337     -60.523
  O      156.814    -662.083     -59.170
  C      157.580    -663.091     -61.206
  O      158.874    -662.644     -60.805
  C      157.276    -664.530     -60.800
  N      160.669    -668.220     -61.740
  C      160.635    -667.314     -60.702
  N      161.630    -667.403     -59.785
  N      159.714    -666.388     -60.574
  C      158.827    -666.367     -61.602
  C      158.778    -667.192     -62.695
  C      159.774    -668.239     -62.804
  O      159.868    -669.052     -63.718
  N      157.741    -666.866     -63.529
  C      157.159    -665.838     -62.942
  N      157.770    -665.514     -61.752
  O      153.178    -662.427     -64.207
  O      155.345    -662.298     -65.569
  H      159.036    -661.788     -61.246
  H      153.181    -661.466     -64.353
  H      161.380    -668.925     -61.772
  H      156.293    -665.310     -63.318
  H      157.717    -664.765     -59.832
  H      157.499    -662.930     -62.284
  H      162.451    -667.962     -59.950
  H      156.254    -661.393     -61.022
  H      161.791    -666.573     -59.206
  H      154.618    -663.287     -59.755
  H      153.798    -663.931     -62.097
  H      153.839    -662.195     -61.807
  P      156.979    -660.561     -58.696
  C      156.916    -660.958     -56.077
  O      157.604    -660.516     -57.225
  O      155.478    -660.064     -58.486
  O      157.731    -659.693     -59.662
  H      155.259    -659.358     -59.121
  H      157.538    -660.828     -55.216
  H      156.670    -661.994     -56.185
  H      156.018    -660.388     -55.958

 6  7  8  9  10  11  12  13  14  15  26  29  33  34 0
 6-311+G(2d,p)
 ****
 36  38  39  40  41 0
 6-311+G(2d,p)
 ****
 1  2  3  4  5  16  17  18  19  20  21  22  23  24  25 0
 3-21G
 ****
 27  28  30  31  32  35  37  42  43  44  45  46  47 0
 3-21G
 ****
 48  49 0
 3-21G
 ****


