%nproc=1
%NoSave
%Mem=1900MB
#P OB98/GEN NMR

erre ene a

0 1
  C        1.786    -180.052     -35.901
  O        1.127    -181.071     -36.621
  H        1.241    -179.116     -36.041
  H        2.801    -179.930     -36.289
  H        1.827    -180.279     -34.832
  P        1.422    -182.596     -36.240
  C        0.450    -183.397     -38.496
  O        1.559    -183.432     -37.606
  C        0.676    -184.293     -39.715
  O        1.807    -183.805     -40.468
  C        0.989    -185.740     -39.331
  O       -0.155    -186.559     -39.144
  C        1.811    -186.211     -40.528
  O        0.968    -186.736     -41.569
  C        2.516    -184.934     -41.002
  N        7.388    -185.881     -42.242
  C        6.232    -186.267     -42.900
  N        6.409    -187.030     -44.000
  N        5.032    -185.944     -42.496
  C        5.013    -185.266     -41.327
  C        6.089    -184.846     -40.574
  C        7.419    -185.140     -41.068
  O        8.470    -184.805     -40.533
  N        5.681    -184.214     -39.420
  C        4.368    -184.332     -39.441
  N        3.912    -184.892     -40.611
  O        0.017    -183.114     -35.661
  O        2.517    -182.812     -35.241
  H        1.535    -186.953     -42.336
  H        0.176    -183.794     -34.982
  H        8.283    -186.132     -42.615
  H        3.702    -183.996     -38.656
  H        2.487    -184.845     -42.095
  H        2.491    -187.019     -40.241
  H        7.303    -187.377     -44.307
  H        1.627    -185.776     -38.445
  H        5.587    -187.489     -44.401
  H       -0.199    -184.230     -40.375
  H        0.338    -182.358     -38.808
  H       -0.465    -183.685     -37.975
  P       -0.157    -187.733     -38.060
  C       -2.334    -188.883     -38.960
  O       -0.959    -188.973     -38.660
  O       -1.130    -187.174     -36.923
  O        1.184    -188.104     -37.514
  H       -0.620    -186.789     -36.188
  H       -2.676    -189.819     -39.350
  H       -2.491    -188.115     -39.688
  H       -2.879    -188.647     -38.070

 6  7  8  9  10  11  12  13  14  15  26  29  33  34 0
 6-311+G(2d,p)
 ****
 36  38  39  40  41 0
 6-311+G(2d,p)
 ****
 1  2  3  4  5  16  17  18  19  20  21  22  23  24  25 0
 3-21G
 ****
 27  28  30  31  32  35  37  42  43  44  45  46  47 0
 3-21G
 ****
 48  49 0
 3-21G
 ****


