%nproc=1
%NoSave
%Mem=1900MB
#P OB98/GEN NMR

erre ene a

0 1
  C     -128.501     239.711     196.594
  O     -129.630     239.605     195.750
  H     -128.533     238.896     197.323
  H     -128.521     240.660     197.134
  H     -127.576     239.627     196.017
  P     -129.776     240.625     194.522
  C     -132.345     240.699     194.439
  O     -131.159     240.268     193.788
  C     -133.444     239.649     194.304
  O     -133.015     238.435     194.972
  C     -134.782     240.076     194.919
  O     -135.837     239.587     194.090
  C     -134.803     239.352     196.251
  O     -136.130     239.113     196.716
  C     -134.030     238.075     195.929
  N     -135.022     236.136     200.485
  C     -135.880     236.555     199.489
  N     -137.202     236.470     199.750
  N     -135.478     237.021     198.336
  C     -134.130     237.038     198.204
  C     -133.176     236.652     199.115
  C     -133.634     236.151     200.395
  O     -132.921     235.777     201.319
  N     -131.910     236.845     198.621
  C     -132.099     237.349     197.416
  N     -133.429     237.495     197.121
  O     -128.594     240.703     193.610
  O     -130.082     242.031     195.219
  H     -136.054     238.612     197.557
  H     -129.276     242.578     195.261
  H     -135.385     235.795     201.359
  H     -131.316     237.631     196.724
  H     -134.668     237.301     195.485
  H     -134.277     239.951     197.006
  H     -137.586     236.106     200.608
  H     -134.871     241.160     195.036
  H     -137.853     236.750     199.024
  H     -133.561     239.403     193.241
  H     -132.670     241.637     193.975
  H     -132.130     240.885     195.498
  P     -136.743     240.641     193.291
  C     -138.876     239.235     193.608
  O     -138.000     239.858     192.677
  O     -136.012     241.525     192.335
  O     -137.412     241.498     194.473
  H     -137.578     242.405     194.148
  H     -139.670     238.749     193.080
  H     -139.285     239.975     194.264
  H     -138.333     238.512     194.180

 6  7  8  9  10  11  12  13  14  15  26  29  33  34 0
 6-311+G(2d,p)
 ****
 36  38  39  40  41 0
 6-311+G(2d,p)
 ****
 1  2  3  4  5  16  17  18  19  20  21  22  23  24  25 0
 3-21G
 ****
 27  28  30  31  32  35  37  42  43  44  45  46  47 0
 3-21G
 ****
 48  49 0
 3-21G
 ****


