%nproc=1
%NoSave
%Mem=1900MB
#P OB98/GEN NMR

erre ene a

0 1
  C      -16.918     230.296     323.563
  O      -16.278     229.761     322.421
  P      -16.482     230.498     321.013
  C      -17.475     228.430     319.732
  O      -16.415     229.358     319.884
  C      -16.973     227.163     319.031
  O      -16.632     227.494     317.653
  C      -15.734     226.527     319.672
  O      -15.860     225.107     319.520
  C      -14.599     227.053     318.808
  O      -13.432     226.245     318.885
  C      -15.271     227.070     317.431
  N      -14.608     227.949     316.470
  C      -14.126     227.382     315.292
  O      -14.204     226.186     315.025
  N      -13.507     228.251     314.426
  C      -13.270     229.576     314.645
  O      -12.697     230.305     313.842
  C      -13.764     230.105     315.927
  C      -14.403     229.289     316.759
  O      -15.090     231.271     320.866
  O      -17.693     231.367     320.958
  H      -14.334     230.773     321.223
  H      -12.710     226.716     318.427
  H      -13.182     227.871     313.551
  H      -13.579     231.152     316.144
  H      -14.768     229.652     317.713
  H      -15.315     226.050     317.024
  H      -14.334     228.067     319.135
  H      -15.632     226.783     320.731
  H      -17.800     226.444     318.995
  H      -18.268     228.882     319.126
  H      -17.892     228.193     320.716
  P      -15.758     224.194     320.850
  C      -13.269     223.409     321.096
  O      -14.571     223.142     320.611
  O      -17.069     223.291     320.671
  O      -15.740     224.953     322.134
  H      -17.152     222.909     319.785
  H      -12.713     222.469     321.140
  H      -13.290     223.845     322.095
  H      -12.754     224.086     320.407
  H      -16.685     229.695     324.417
  H      -17.977     230.301     323.409
  H      -16.577     231.297     323.727

 3  4  5  6  7  8  9  10  11  12  13  24  28  29  30  31  32 0
 6-311+G(2d,p)
 ****
 33  34 0
 6-311+G(2d,p)
 ****
 1  2  14  15  16  17  18  19  20  21  22  23  25  26  27 0
 3-21G
 ****
 35  36  37  38  39  40  41  42  43  44  45 0
 3-21G
 ****


