%nproc=1
%NoSave
%Mem=1900MB
#P OB98/GEN NMR

erre ene a

0 1
  C      -54.565    -208.814     314.309
  O      -54.644    -210.213     314.141
  H      -55.000    -208.552     315.281
  H      -55.136    -208.307     313.527
  H      -53.525    -208.474     314.288
  P      -53.896    -210.885     312.890
  C      -55.827    -210.525     311.221
  O      -55.038    -211.474     311.929
  C      -56.742    -211.248     310.228
  O      -57.638    -210.303     309.602
  C      -55.996    -211.937     309.086
  O      -55.388    -213.137     309.528
  C      -57.126    -212.121     308.082
  O      -57.934    -213.256     308.422
  C      -57.921    -210.799     308.272
  N      -57.614    -209.790     307.259
  C      -58.119    -210.021     305.982
  O      -58.760    -211.030     305.685
  N      -57.851    -209.052     305.048
  C      -57.067    -207.947     305.242
  O      -56.814    -207.137     304.352
  C      -56.530    -207.782     306.599
  C      -56.822    -208.690     307.531
  O      -52.803    -211.846     313.223
  O      -53.345    -209.629     312.065
  H      -58.379    -213.045     309.267
  H      -52.395    -209.501     312.255
  H      -58.201    -209.205     304.117
  H      -55.898    -206.914     306.789
  H      -56.432    -208.583     308.534
  H      -59.005    -211.001     308.237
  H      -56.765    -212.280     307.068
  H      -55.249    -211.258     308.654
  H      -57.349    -211.972     310.791
  H      -55.161    -209.850     310.675
  H      -56.416    -209.946     311.937
  P      -53.845    -213.435     309.220
  C      -54.550    -214.759     307.143
  O      -53.777    -214.779     308.335
  O      -52.945    -213.431     310.414
  O      -53.431    -212.291     308.179
  H      -52.869    -211.623     308.626
  H      -54.438    -215.691     306.630
  H      -54.213    -213.962     306.513
  H      -55.580    -214.608     307.389

 6  7  8  9  10  11  12  13  14  15  16  26  31  32  33  34  35 0
 6-311+G(2d,p)
 ****
 36  37 0
 6-311+G(2d,p)
 ****
 1  2  3  4  5  17  18  19  20  21  22  23  24  25 0
 3-21G
 ****
 27  28  29  30  38  39  40  41  42  43  44  45 0
 3-21G
 ****


