%nproc=1
%NoSave
%Mem=1900MB
#P OB98/GEN NMR

erre ene a

0 1
  C      342.378    -322.191     192.716
  O      343.615    -322.755     193.168
  P      343.512    -324.105     194.033
  C      342.845    -323.393     196.438
  O      342.414    -323.889     195.182
  C      341.684    -323.179     197.408
  O      341.042    -324.448     197.730
  C      342.097    -322.538     198.738
  O      341.009    -321.715     199.175
  C      342.216    -323.726     199.671
  O      342.120    -323.318     201.038
  C      341.058    -324.603     199.164
  N      341.183    -326.012     199.560
  C      340.998    -326.310     200.911
  O      340.808    -325.405     201.730
  N      341.068    -327.615     201.315
  C      341.358    -328.539     200.454
  N      341.425    -329.820     200.915
  C      341.625    -328.259     199.027
  C      341.516    -326.987     198.653
  O      344.899    -324.131     194.834
  O      343.340    -325.335     193.204
  H      342.393    -324.072     201.604
  H      345.324    -325.006     194.738
  H      341.883    -329.062     198.342
  H      341.688    -326.686     197.626
  H      340.098    -324.235     199.553
  H      343.177    -324.231     199.522
  H      343.005    -321.937     198.668
  H      340.932    -322.558     196.910
  H      341.231    -329.969     201.899
  H      343.365    -322.439     196.297
  H      341.641    -330.617     200.333
  H      343.590    -324.077     196.856
  P      341.132    -320.127     198.992
  C      342.328    -319.790     201.239
  O      342.439    -319.723     199.826
  O      339.959    -319.601     199.958
  O      341.008    -319.555     197.615
  H      339.889    -318.633     199.877
  H      343.317    -319.609     201.675
  H      341.983    -320.774     201.551
  H      341.646    -319.012     201.596
  H      342.575    -321.301     192.155
  H      341.765    -321.952     193.560
  H      341.869    -322.898     192.095

 3  4  5  6  7  8  9  10  11  12  13  21  23  27  28  29  30  32 0
 6-311+G(2d,p)
 ****
 34  35 0
 6-311+G(2d,p)
 ****
 1  2  14  15  16  17  18  19  20  22  24  25  26 0
 3-21G
 ****
 31  33  36  37  38  39  40  41  42  43  44  45  46 0
 3-21G
 ****


