%nproc=1
%NoSave
%Mem=1900MB
#P OB98/GEN NMR

erre ene a

0 1
  C     -310.597      38.097     410.971
  O     -311.325      39.141     410.357
  H     -309.567      38.432     411.129
  H     -310.580      37.215     410.324
  H     -311.033      37.842     411.943
  P     -312.895      38.947     410.101
  C     -313.227      40.017     407.784
  O     -313.372      40.178     409.190
  C     -312.161      40.963     407.240
  O     -310.871      40.567     407.764
  C     -312.066      40.968     405.707
  O     -311.802      42.303     405.272
  C     -310.863      40.091     405.429
  O     -310.236      40.410     404.189
  C     -309.984      40.366     406.646
  N     -305.877      38.976     409.246
  C     -306.601      40.153     409.285
  N     -306.152      41.120     410.116
  N     -307.669      40.370     408.560
  C     -308.012      39.313     407.782
  C     -307.381      38.102     407.658
  C     -306.194      37.879     408.453
  O     -305.504      36.864     408.452
  N     -308.022      37.295     406.746
  C     -309.035      38.030     406.314
  N     -309.067      39.267     406.908
  O     -313.719      38.730     411.328
  O     -312.976      37.701     409.105
  H     -310.887      40.217     403.476
  H     -313.201      36.884     409.589
  H     -305.056      38.864     409.815
  H     -309.765      37.717     405.581
  H     -309.369      41.270     406.522
  H     -311.172      39.037     405.396
  H     -305.348      41.018     410.712
  H     -312.977      40.592     405.225
  H     -306.678      41.982     410.177
  H     -312.364      41.973     407.621
  H     -314.192      40.233     407.315
  H     -312.954      38.977     407.568
  P     -312.556      42.858     403.972
  C     -310.771      42.962     402.111
  O     -311.498      43.691     403.096
  O     -313.857      43.539     404.218
  O     -312.757      41.528     403.091
  H     -313.566      41.627     402.552
  H     -310.104      43.623     401.598
  H     -311.455      42.531     401.410
  H     -310.209      42.185     402.585

 6  7  8  9  10  11  12  13  14  15  26  29  33  34 0
 6-311+G(2d,p)
 ****
 36  38  39  40  41 0
 6-311+G(2d,p)
 ****
 1  2  3  4  5  16  17  18  19  20  21  22  23  24  25 0
 3-21G
 ****
 27  28  30  31  32  35  37  42  43  44  45  46  47 0
 3-21G
 ****
 48  49 0
 3-21G
 ****


