%nproc=1
%NoSave
%Mem=1900MB
#P OB98/GEN NMR

erre ene a

0 1
  C      116.880      22.141      78.740
  O      115.911      23.148      78.463
  P      116.139      24.594      79.113
  C      115.373      26.042      77.064
  O      115.137      25.618      78.393
  C      114.950      24.959      76.054
  O      113.523      24.737      76.191
  C      115.166      25.315      74.588
  O      115.141      24.112      73.817
  C      113.930      26.132      74.284
  O      113.698      26.233      72.882
  C      112.839      25.398      75.094
  N      111.786      26.295      75.619
  C      110.634      26.480      74.860
  O      110.435      25.943      73.771
  N      109.708      27.348      75.371
  C      109.797      28.004      76.561
  O      108.980      28.837      76.930
  C      110.965      27.666      77.386
  C      111.893      26.852      76.883
  O      117.585      25.021      78.581
  O      116.062      24.602      80.602
  H      113.528      25.318      72.558
  H      118.243      24.945      79.298
  H      108.899      27.543      74.799
  H      111.037      28.116      78.368
  H      112.774      26.607      77.473
  H      112.340      24.635      74.484
  H      114.059      27.150      74.665
  H      116.086      25.870      74.385
  H      115.454      24.019      76.304
  H      116.428      26.289      76.936
  H      114.809      26.962      76.866
  P      116.544      23.490      73.345
  C      115.784      21.043      73.143
  O      116.191      22.207      72.450
  O      117.555      23.271      74.419
  O      117.053      24.549      72.253
  H      118.014      24.442      72.118
  H      115.110      20.469      72.504
  H      115.267      21.289      74.075
  H      116.665      20.435      73.371
  H      116.603      21.234      78.245
  H      116.927      21.972      79.796
  H      117.838      22.461      78.387

 3  4  5  6  7  8  9  10  11  12  13  23  28  29  30  31  32 0
 6-311+G(2d,p)
 ****
 33  34 0
 6-311+G(2d,p)
 ****
 1  2  14  15  16  17  18  19  20  21  22  24  25  26  27 0
 3-21G
 ****
 35  36  37  38  39  40  41  42  43  44  45 0
 3-21G
 ****


