%nproc=1
%NoSave
%Mem=1900MB
#P OB98/GEN NMR

erre ene a

0 1
  C     -134.408     368.117      11.175
  O     -133.725     368.875      10.172
  P     -132.492     369.775      10.665
  C     -130.212     369.341      11.834
  O     -131.296     368.797      11.090
  C     -129.271     368.225      12.286
  O     -129.975     367.184      12.999
  C     -128.571     367.515      11.131
  O     -127.534     368.319      10.594
  C     -128.097     366.242      11.818
  O     -126.905     366.496      12.580
  C     -129.266     365.940      12.777
  N     -130.824     361.086      13.187
  C     -129.877     361.788      13.846
  N     -129.519     363.077      13.675
  C     -130.264     363.654      12.719
  C     -131.268     363.065      11.961
  C     -131.543     361.714      12.224
  N     -132.496     360.996      11.542
  N     -131.804     363.977      11.072
  C     -131.120     365.086      11.271
  N     -130.186     364.943      12.261
  O     -133.008     370.379      12.054
  O     -132.113     370.852       9.699
  H     -126.697     365.678      13.077
  H     -133.195     371.331      11.953
  H     -129.331     361.241      14.609
  H     -131.262     366.010      10.719
  H     -128.920     365.585      13.755
  H     -127.872     365.432      11.119
  H     -129.298     367.270      10.344
  H     -128.523     368.663      12.959
  H     -130.585     369.886      12.705
  H     -132.575     360.010      11.736
  H     -132.975     361.429      10.765
  H     -129.687     370.071      11.208
  P     -127.862     369.184       9.282
  C     -129.159     371.393       9.060
  O     -128.292     370.619       9.874
  O     -129.258     368.559       8.825
  O     -126.782     369.203       8.254
  H     -129.868     368.447       9.575
  H     -129.400     372.317       9.592
  H     -130.085     370.842       8.864
  H     -128.663     371.642       8.119
  H     -135.204     367.563      10.723
  H     -134.809     368.781      11.912
  H     -133.722     367.440      11.640

 3  4  5  6  7  8  9  10  11  12  22  25  29  30  31  32 0
 6-311+G(2d,p)
 ****
 33  36  37 0
 6-311+G(2d,p)
 ****
 1  2  13  14  15  16  17  18  19  20  21  23  24  26 0
 3-21G
 ****
 27  28  34  35  38  39  40  41  42  43  44  45  46  47  48 0
 3-21G
 ****


