%nproc=1
%NoSave
%Mem=1900MB
#P OB98/GEN NMR

erre ene a

0 1
  C      574.051    -475.379     741.460
  O      575.284    -475.275     742.162
  P      575.872    -473.814     742.471
  C      576.635    -473.419     740.046
  O      575.822    -472.953     741.120
  C      576.998    -472.264     739.110
  O      577.844    -471.299     739.759
  C      577.771    -472.716     737.874
  O      576.924    -473.355     736.950
  C      578.370    -471.395     737.403
  O      577.416    -470.640     736.628
  C      578.653    -470.671     738.740
  N      580.067    -470.670     739.112
  C      580.894    -469.839     738.347
  O      580.437    -469.189     737.410
  N      582.229    -469.776     738.675
  C      582.697    -470.486     739.647
  N      584.016    -470.395     739.925
  C      581.851    -471.392     740.457
  C      580.561    -471.439     740.132
  O      577.181    -473.784     743.208
  O      574.706    -473.142     743.358
  H      577.200    -471.210     735.858
  H      575.114    -472.502     743.979
  H      582.291    -471.968     741.273
  H      579.878    -472.068     740.680
  H      578.333    -469.630     738.688
  H      579.245    -471.550     736.778
  H      578.577    -473.397     738.177
  H      576.073    -471.764     738.804
  H      584.582    -469.770     739.338
  H      576.101    -474.192     739.492
  H      584.469    -470.865     740.697
  H      577.532    -473.889     740.465
  P      577.070    -474.941     736.774
  C      577.875    -474.681     734.315
  O      578.138    -475.202     735.609
  O      575.673    -475.363     736.102
  O      577.309    -475.697     738.042
  H      575.420    -476.255     736.403
  H      578.808    -474.664     733.747
  H      577.484    -473.663     734.378
  H      577.161    -475.322     733.802
  H      573.798    -476.411     741.334
  H      574.147    -474.916     740.500
  H      573.281    -474.888     742.017

 3  4  5  6  7  8  9  10  11  12  13  23  27  28  29  30  32 0
 6-311+G(2d,p)
 ****
 34  35 0
 6-311+G(2d,p)
 ****
 1  2  14  15  16  17  18  19  20  21  22  24  25  26 0
 3-21G
 ****
 31  33  36  37  38  39  40  41  42  43  44  45  46 0
 3-21G
 ****


