%nproc=1
%NoSave
%Mem=1900MB
#P OB98/GEN NMR

erre ene a

0 1
  C     -428.957    -441.205    -443.980
  O     -429.820    -441.118    -445.094
  P     -430.841    -439.883    -445.237
  C     -432.617    -441.705    -445.677
  O     -432.100    -440.435    -446.072
  C     -433.851    -442.040    -446.500
  O     -434.931    -441.112    -446.232
  C     -433.644    -441.953    -448.007
  O     -432.758    -442.879    -448.595
  C     -435.077    -441.958    -448.507
  O     -435.612    -443.279    -448.557
  C     -435.787    -441.126    -447.406
  N     -436.113    -439.777    -447.856
  C     -437.361    -439.298    -447.509
  O     -438.184    -439.944    -446.856
  N     -437.675    -438.039    -447.968
  C     -436.890    -437.262    -448.762
  O     -437.250    -436.152    -449.168
  C     -435.578    -437.824    -449.101
  C     -435.247    -439.031    -448.653
  O     -430.248    -438.620    -445.761
  O     -431.460    -439.749    -443.764
  H     -436.507    -443.220    -448.933
  H     -431.920    -440.543    -443.431
  H     -438.592    -437.682    -447.730
  H     -434.925    -437.218    -449.724
  H     -434.280    -439.475    -448.900
  H     -436.725    -441.621    -447.099
  H     -435.158    -441.534    -449.515
  H     -433.220    -440.967    -448.234
  H     -434.203    -443.033    -446.204
  H     -432.886    -441.665    -444.627
  H     -431.838    -442.469    -445.792
  P     -431.499    -442.434    -449.494
  C     -432.147    -443.823    -451.587
  O     -431.212    -443.597    -450.556
  O     -430.323    -441.858    -448.771
  O     -432.143    -441.303    -450.423
  H     -431.458    -440.639    -450.635
  H     -431.814    -444.677    -452.189
  H     -432.217    -442.945    -452.235
  H     -433.127    -444.075    -451.165
  H     -428.358    -442.088    -444.061
  H     -429.537    -441.248    -443.082
  H     -428.322    -440.344    -443.953

 3  4  5  6  7  8  9  10  11  12  13  23  28  29  30  31  32 0
 6-311+G(2d,p)
 ****
 33  34 0
 6-311+G(2d,p)
 ****
 1  2  14  15  16  17  18  19  20  21  22  24  25  26  27 0
 3-21G
 ****
 35  36  37  38  39  40  41  42  43  44  45 0
 3-21G
 ****


