%nproc=1
%NoSave
%Mem=1900MB
#P OB98/GEN NMR

erre ene a

0 1
  C      835.152     547.579    -610.389
  O      833.799     547.696    -610.855
  P      833.124     549.148    -610.941
  C      831.351     548.880    -612.850
  O      831.601     549.027    -611.456
  C      831.524     547.424    -613.298
  O      830.773     546.535    -612.413
  C      831.068     547.143    -614.734
  O      831.921     546.107    -615.256
  C      829.652     546.597    -614.519
  O      829.167     545.853    -615.612
  C      829.885     545.764    -613.248
  N      828.663     545.442    -612.523
  C      827.898     544.374    -612.987
  O      828.138     543.720    -613.995
  N      826.773     544.079    -612.254
  C      826.333     544.754    -611.131
  O      825.304     544.458    -610.522
  C      827.168     545.883    -610.708
  C      828.271     546.163    -611.414
  O      833.864     549.791    -612.209
  O      833.328     550.015    -609.728
  H      829.894     545.267    -615.913
  H      834.142     550.688    -612.000
  H      826.218     543.297    -612.560
  H      826.861     546.436    -609.833
  H      828.910     546.999    -611.107
  H      830.409     544.845    -613.506
  H      828.971     547.435    -614.353
  H      831.097     548.025    -615.373
  H      832.594     547.164    -613.177
  H      832.058     549.526    -613.411
  H      830.338     549.234    -613.065
  P      832.928     546.496    -616.452
  C      834.448     544.373    -616.238
  O      833.536     545.119    -616.995
  O      834.154     547.093    -615.591
  O      832.385     547.441    -617.451
  H      834.375     546.552    -614.822
  H      834.165     544.347    -615.179
  H      835.445     544.787    -616.330
  H      834.470     543.354    -616.606
  H      835.443     546.549    -610.394
  H      835.221     547.964    -609.393
  H      835.800     548.136    -611.032

 3  4  5  6  7  8  9  10  11  12  13  23  28  29  30  31  32 0
 6-311+G(2d,p)
 ****
 33  34 0
 6-311+G(2d,p)
 ****
 1  2  14  15  16  17  18  19  20  21  22  24  25  26 0
 3-21G
 ****
 27  35  36  37  38  39  40  41  42  43  44  45 0
 3-21G
 ****


