%nproc=1
%NoSave
%Mem=1900MB
#P OB98/GEN NMR

erre ene a

0 1
  C     -536.451    -251.151    -389.826
  O     -537.753    -251.427    -389.365
  P     -538.113    -252.850    -388.740
  C     -540.470    -251.874    -388.432
  O     -539.711    -252.999    -388.847
  C     -541.893    -252.307    -388.046
  O     -541.860    -253.328    -387.013
  C     -542.745    -251.191    -387.461
  O     -543.092    -250.122    -388.319
  C     -543.886    -251.993    -386.849
  O     -544.856    -252.352    -387.831
  C     -543.135    -253.254    -386.329
  N     -542.968    -253.223    -384.877
  C     -544.149    -253.213    -384.131
  O     -545.269    -253.233    -384.626
  N     -543.992    -253.158    -382.777
  C     -542.803    -253.055    -382.103
  O     -542.743    -252.964    -380.880
  C     -541.596    -253.052    -382.941
  C     -541.725    -253.133    -384.272
  O     -537.555    -253.111    -387.372
  O     -537.603    -253.887    -389.851
  H     -545.493    -252.964    -387.402
  H     -538.024    -253.779    -390.721
  H     -544.825    -253.137    -382.224
  H     -540.637    -252.986    -382.440
  H     -540.855    -253.133    -384.909
  H     -543.690    -254.162    -386.597
  H     -544.407    -251.417    -386.073
  H     -542.192    -250.740    -386.632
  H     -542.357    -252.756    -388.932
  H     -540.526    -251.159    -389.260
  H     -539.964    -251.380    -387.595
  P     -543.310    -248.622    -387.800
  C     -543.537    -247.950    -390.292
  O     -544.016    -247.788    -388.975
  O     -542.164    -247.985    -387.085
  O     -544.529    -248.819    -386.758
  H     -544.447    -248.153    -386.053
  H     -544.091    -247.274    -390.947
  H     -543.695    -248.985    -390.632
  H     -542.469    -247.692    -390.355
  H     -536.412    -250.152    -390.206
  H     -536.195    -251.839    -390.604
  H     -535.757    -251.253    -389.018

 3  4  5  6  7  8  9  10  11  12  13  23  28  29  30  31  32 0
 6-311+G(2d,p)
 ****
 33  34 0
 6-311+G(2d,p)
 ****
 1  2  14  15  16  17  18  19  20  21  22  24  25  26  27 0
 3-21G
 ****
 35  36  37  38  39  40  41  42  43  44  45 0
 3-21G
 ****


