%nproc=1
%NoSave
%Mem=1900MB
#P OB98/GEN NMR

erre ene a

0 1
  C      131.109     128.451     -11.570
  O      130.472     127.354     -12.189
  H      130.489     128.794     -10.738
  H      131.223     129.270     -12.285
  H      132.087     128.155     -11.182
  P      131.230     126.670     -13.431
  C      132.027     124.605     -12.059
  O      131.205     125.092     -13.113
  C      131.296     123.510     -11.276
  O      130.054     124.044     -10.758
  C      130.960     122.281     -12.122
  O      131.236     121.098     -11.368
  C      129.472     122.412     -12.393
  O      128.852     121.149     -12.628
  C      128.986     123.160     -11.146
  N      127.751     123.901     -11.402
  C      126.607     123.476     -10.722
  O      126.666     122.509      -9.956
  N      125.417     124.112     -10.961
  C      125.359     125.055     -11.850
  N      124.144     125.633     -12.056
  C      126.530     125.506     -12.627
  C      127.682     124.897     -12.353
  O      132.755     127.080     -13.188
  O      130.708     127.041     -14.778
  H      128.892     120.631     -11.793
  H      133.308     126.907     -13.989
  H      126.428     126.285     -13.369
  H      128.595     125.161     -12.877
  H      128.809     122.461     -10.317
  H      129.319     123.033     -13.284
  H      131.521     122.241     -13.056
  H      131.908     123.240     -10.406
  H      123.363     125.292     -11.514
  H      132.273     125.433     -11.390
  H      123.976     126.356     -12.744
  H      132.951     124.198     -12.483
  P      132.555     120.286     -11.791
  C      133.942     121.276      -9.837
  O      133.455     120.103     -10.473
  O      133.375     121.338     -12.675
  O      132.267     119.023     -12.534
  H      133.239     121.167     -13.624
  H      134.521     121.003      -8.980
  H      133.117     121.885      -9.531
  H      134.555     121.824     -10.521

 6  7  8  9  10  11  12  13  14  15  16  26  30  31  32  33  35 0
 6-311+G(2d,p)
 ****
 37  38 0
 6-311+G(2d,p)
 ****
 1  2  3  4  5  17  18  19  20  21  22  23  24  25 0
 3-21G
 ****
 27  28  29  34  36  39  40  41  42  43  44  45  46 0
 3-21G
 ****


