%nproc=1
%NoSave
%Mem=1900MB
#P OB98/GEN NMR

erre ene a

0 1
  C      243.666    -288.847    -782.060
  O      243.030    -289.437    -780.931
  P      243.955    -290.254    -779.902
  C      244.317    -288.409    -778.108
  O      243.656    -289.622    -778.454
  C      243.494    -287.630    -777.090
  O      242.282    -287.155    -777.704
  C      243.052    -288.439    -775.881
  O      244.082    -288.546    -774.906
  C      241.906    -287.576    -775.352
  O      242.429    -286.492    -774.570
  C      241.280    -287.041    -776.659
  N      236.226    -286.922    -776.959
  C      237.102    -285.974    -776.480
  N      236.563    -284.819    -776.041
  N      238.399    -286.147    -776.434
  C      238.804    -287.335    -776.936
  C      238.027    -288.360    -777.439
  C      236.589    -288.179    -777.439
  O      235.757    -289.010    -777.787
  N      238.806    -289.402    -777.878
  C      240.045    -289.000    -777.676
  N      240.093    -287.761    -777.080
  O      245.427    -289.713    -780.235
  O      243.867    -291.736    -780.009
  H      241.702    -285.847    -774.464
  H      246.091    -290.385    -779.984
  H      235.238    -286.739    -776.991
  H      240.919    -289.570    -777.940
  H      241.024    -285.979    -776.571
  H      241.212    -288.131    -774.715
  H      235.592    -284.580    -776.178
  H      242.671    -289.417    -776.179
  H      237.198    -284.097    -775.723
  H      244.078    -286.754    -776.778
  H      244.445    -287.800    -779.009
  H      245.305    -288.654    -777.702
  P      243.848    -289.614    -773.729
  C      245.553    -291.355    -774.623
  O      245.223    -290.424    -773.617
  O      242.832    -290.665    -774.384
  O      243.309    -289.031    -772.468
  H      242.309    -291.106    -773.692
  H      245.234    -291.012    -775.609
  H      245.085    -292.320    -774.400
  H      246.641    -291.484    -774.641
  H      242.936    -288.338    -782.655
  H      244.134    -289.611    -782.645
  H      244.405    -288.148    -781.728

 3  4  5  6  7  8  9  10  11  12  23  26  30  31  33  0
 6-311+G(2d,p)
 ****
 35  36  37  38 0
 6-311+G(2d,p)
 ****
 1  2  13  14  15  16  17  18  19  20  21  22  24  25  27  28  29 0
 3-21G
 ****
 32  34  39  40  41  42  43  44  45  46  47  48  49 0
 3-21G
 ****


