%nproc=1
%NoSave
%Mem=1900MB
#P OB98/GEN NMR

erre ene a

0 1
  C     -103.793      61.497    -107.851
  O     -104.153      60.181    -107.405
  P     -103.076      59.027    -107.103
  C     -104.214      58.393    -104.879
  O     -103.731      57.929    -106.132
  C     -105.342      57.506    -104.339
  O     -106.634      57.989    -104.820
  C     -105.233      56.022    -104.735
  O     -105.655      55.259    -103.602
  C     -106.234      55.926    -105.880
  O     -106.643      54.601    -106.168
  C     -107.339      56.836    -105.334
  N     -108.354      57.241    -106.301
  C     -109.701      57.066    -105.944
  O     -110.018      56.539    -104.879
  N     -110.669      57.482    -106.826
  C     -110.337      58.012    -107.959
  N     -111.348      58.410    -108.783
  C     -108.936      58.194    -108.385
  C     -108.010      57.792    -107.516
  O     -101.763      59.549    -106.611
  O     -102.885      58.247    -108.489
  H     -101.953      57.966    -108.575
  H     -106.892      54.174    -105.327
  H     -108.705      58.646    -109.337
  H     -106.954      57.920    -107.742
  H     -107.819      56.349    -104.480
  H     -105.774      56.337    -106.782
  H     -104.217      55.714    -105.007
  H     -105.359      57.606    -103.245
  H     -112.297      58.276    -108.449
  H     -104.596      59.410    -105.007
  H     -111.199      58.840    -109.682
  H     -103.383      58.428    -104.163
  P     -104.598      54.351    -102.815
  C     -105.759      54.569    -100.490
  O     -105.348      53.721    -101.542
  O     -103.661      55.458    -102.124
  O     -103.771      53.424    -103.644
  H     -102.778      55.075    -101.963
  H     -106.772      54.295    -100.191
  H     -105.750      55.624    -100.775
  H     -105.087      54.428     -99.634
  H     -104.678      62.083    -107.983
  H     -103.269      61.427    -108.782
  H     -103.163      61.961    -107.121

 3  4  5  6  7  8  9  10  11  12  13  24  27  28  29  30  32 0
 6-311+G(2d,p)
 ****
 34  35 0
 6-311+G(2d,p)
 ****
 1  2  14  15  16  17  18  19  20  21  22  23  25  26 0
 3-21G
 ****
 31  33  36  37  38  39  40  41  42  43  44  45  46 0
 3-21G
 ****


