%nproc=1
%NoSave
%Mem=1900MB
#P OB98/GEN NMR

erre ene a

0 1
  C       16.186    -148.959     166.166
  O       15.811    -148.658     167.500
  P       16.917    -148.833     168.644
  C       14.984    -148.572     170.370
  O       16.307    -148.224     169.992
  C       14.595    -147.823     171.648
  O       15.268    -148.397     172.792
  C       14.990    -146.353     171.640
  O       14.079    -145.577     170.874
  C       14.980    -146.021     173.123
  O       13.647    -145.718     173.571
  C       15.479    -147.340     173.750
  N       16.871    -147.264     174.175
  C       17.133    -146.413     175.244
  O       16.260    -145.737     175.793
  N       18.441    -146.329     175.638
  C       19.499    -146.957     175.045
  O       20.660    -146.798     175.410
  C       19.168    -147.824     173.902
  C       17.889    -147.927     173.521
  O       18.059    -147.784     168.235
  O       17.460    -150.217     168.779
  H       13.713    -145.495     174.518
  H       18.937    -148.145     168.459
  H       18.648    -145.739     176.426
  H       19.981    -148.335     173.405
  H       17.626    -148.549     172.672
  H       14.866    -147.596     174.622
  H       15.600    -145.152     173.353
  H       16.013    -146.243     171.253
  H       13.514    -147.932     171.798
  H       14.929    -149.653     170.546
  H       14.300    -148.320     169.555
  P       14.695    -144.389     169.990
  C       12.711    -142.868     170.749
  O       13.464    -143.412     169.685
  O       14.976    -145.157     168.612
  O       15.904    -143.767     170.607
  H       14.322    -145.856     168.444
  H       13.338    -142.656     171.620
  H       11.927    -143.578     171.033
  H       12.245    -141.941     170.411
  H       15.352    -148.797     165.516
  H       16.493    -149.982     166.104
  H       16.996    -148.325     165.871

 3  4  5  6  7  8  9  10  11  12  13  23  28  29  30  31  32 0
 6-311+G(2d,p)
 ****
 33  34 0
 6-311+G(2d,p)
 ****
 1  2  14  15  16  17  18  19  20  21  22  24  25  26 0
 3-21G
 ****
 27  35  36  37  38  39  40  41  42  43  44  45 0
 3-21G
 ****


