%nproc=1
%NoSave
%Mem=1900MB
#P OB98/GEN NMR

erre ene a

0 1
  C       28.928     -21.303     228.448
  O       27.919     -20.308     228.653
  P       27.534     -19.950     230.173
  C       25.996     -21.117     231.940
  O       26.341     -20.952     230.572
  C       24.838     -22.111     232.094
  O       23.633     -21.561     231.475
  C       25.097     -23.491     231.468
  O       24.484     -24.460     232.334
  C       24.348     -23.418     230.150
  O       24.033     -24.708     229.642
  C       23.139     -22.568     230.559
  N       22.458     -21.961     229.414
  C       21.581     -22.777     228.704
  O       21.424     -23.971     228.950
  N       20.921     -22.171     227.664
  C       21.110     -20.890     227.228
  O       20.489     -20.401     226.291
  C       22.134     -20.117     227.952
  C       22.748     -20.682     228.992
  O       26.821     -18.531     229.994
  O       28.715     -19.954     231.088
  H       26.287     -18.466     229.181
  H       23.321     -25.097     230.187
  H       20.251     -22.735     227.152
  H       22.351     -19.114     227.597
  H       23.525     -20.150     229.527
  H       22.411     -23.180     231.109
  H       24.958     -22.888     229.405
  H       26.164     -23.715     231.359
  H       24.622     -22.222     233.167
  H       25.694     -20.155     232.366
  H       26.881     -21.449     232.498
  P       25.175     -25.909     232.460
  C       24.467     -28.351     231.813
  O       24.202     -26.964     231.746
  O       24.933     -26.202     234.026
  O       26.622     -25.960     232.084
  H       24.022     -26.016     234.308
  H       23.576     -28.893     231.476
  H       24.693     -28.657     232.835
  H       25.303     -28.599     231.154
  H       29.084     -21.442     227.399
  H       28.613     -22.227     228.887
  H       29.841     -20.984     228.905

 3  4  5  6  7  8  9  10  11  12  13  24  28  29  30  31  32 0
 6-311+G(2d,p)
 ****
 33  34 0
 6-311+G(2d,p)
 ****
 1  2  14  15  16  17  18  19  20  21  22  23  25  26  27 0
 3-21G
 ****
 35  36  37  38  39  40  41  42  43  44  45 0
 3-21G
 ****


