%nproc=1
%NoSave
%Mem=1900MB
#P OB98/GEN NMR

erre ene a

0 1
  C      417.395      74.484     150.949
  O      417.245      73.182     151.531
  P      417.943      72.760     152.911
  C      415.985      72.721     154.600
  O      416.889      71.953     153.807
  C      414.783      71.889     155.059
  O      413.931      71.553     153.949
  C      415.148      70.564     155.715
  O      415.624      70.758     157.040
  C      413.815      69.818     155.623
  O      412.932      70.198     156.689
  C      413.278      70.312     154.262
  N      413.464      69.330     153.199
  C      412.363      68.524     152.895
  O      411.316      68.622     153.539
  N      412.479      67.610     151.869
  C      413.616      67.457     151.262
  N      413.672      66.550     150.256
  C      414.825      68.226     151.625
  C      414.677      69.133     152.584
  O      418.611      73.887     153.631
  O      419.016      71.640     152.506
  H      412.088      69.725     156.517
  H      419.767      71.683     153.126
  H      415.765      68.054     151.110
  H      415.520      69.741     152.906
  H      412.206      70.539     154.335
  H      413.939      68.731     155.676
  H      415.896      70.042     155.118
  H      414.201      72.514     155.760
  H      412.820      66.045     150.031
  H      415.628      73.559     153.978
  H      414.502      66.357     149.723
  H      416.524      73.125     155.462
  P      416.405      69.571     157.781
  C      418.650      70.787     158.007
  O      417.542      70.238     158.692
  O      416.860      68.442     156.917
  O      415.346      69.053     158.875
  H      415.480      68.097     159.018
  H      419.123      71.533     158.657
  H      418.342      71.271     157.072
  H      419.371      69.995     157.795
  H      416.841      74.532     150.035
  H      418.430      74.668     150.749
  H      417.026      75.223     151.629

 3  4  5  6  7  8  9  10  11  12  13  23  27  28  29  30  32 0
 6-311+G(2d,p)
 ****
 34  35 0
 6-311+G(2d,p)
 ****
 1  2  14  15  16  17  18  19  20  21  22  24  25  26 0
 3-21G
 ****
 31  33  36  37  38  39  40  41  42  43  44  45  46 0
 3-21G
 ****


