%nproc=1
%NoSave
%Mem=1900MB
#P OB98/GEN NMR

erre ene a

0 1
  C     -130.906    -225.243    -165.526
  O     -132.301    -225.025    -165.574
  H     -130.407    -224.288    -165.344
  H     -130.555    -225.648    -166.479
  H     -130.656    -225.932    -164.714
  P     -133.225    -226.318    -165.791
  C     -134.961    -224.808    -167.004
  O     -134.723    -225.772    -165.985
  C     -136.459    -224.703    -167.274
  O     -136.970    -225.996    -167.668
  C     -137.285    -224.289    -166.061
  O     -137.228    -222.892    -165.831
  C     -138.669    -224.782    -166.463
  O     -139.338    -223.839    -167.311
  C     -138.351    -226.060    -167.250
  N     -141.843    -229.520    -165.903
  C     -141.889    -228.474    -166.757
  N     -140.904    -227.608    -167.076
  C     -139.776    -227.914    -166.415
  C     -139.580    -228.942    -165.509
  C     -140.682    -229.777    -165.257
  N     -140.645    -230.818    -164.362
  N     -138.296    -228.905    -165.005
  C     -137.723    -227.879    -165.601
  N     -138.579    -227.255    -166.465
  O     -133.252    -226.986    -164.335
  O     -132.754    -227.271    -166.836
  H     -140.286    -224.073    -167.292
  H     -132.564    -227.676    -164.280
  H     -142.846    -228.310    -167.246
  H     -136.705    -227.546    -165.435
  H     -138.959    -226.148    -168.158
  H     -139.303    -224.941    -165.590
  H     -136.957    -224.843    -165.171
  H     -136.616    -224.006    -168.106
  H     -134.452    -225.120    -167.922
  H     -134.558    -223.843    -166.681
  H     -141.480    -231.360    -164.214
  H     -139.816    -230.951    -163.798
  P     -137.680    -222.335    -164.400
  C     -139.856    -221.313    -165.388
  O     -138.664    -221.092    -164.650
  O     -136.347    -221.653    -163.835
  O     -138.216    -223.369    -163.468
  H     -135.905    -222.245    -163.198
  H     -140.401    -220.396    -165.469
  H     -140.457    -222.042    -164.885
  H     -139.609    -221.668    -166.367

 6  7  8  9  10  11  12  13  14  15  25  28  32  33  34  35 0
 6-311+G(2d,p)
 ****
 36  37  40 0
 6-311+G(2d,p)
 ****
 1  2  3  4  5  16  17  18  19  20  21  22  23  24 0
 3-21G
 ****
 26  27  29  30  31  38  39 41  42  43  44  45  46  47  48 0
 3-21G
 ****


