%nproc=1
%NoSave
%Mem=1900MB
#P OB98/GEN NMR

erre ene a

0 1
  C      -40.338      84.442     342.786
  O      -39.711      84.651     344.034
  H      -41.364      84.817     342.843
  H      -40.367      83.377     342.544
  H      -39.812      84.989     341.998
  P      -38.211      84.128     344.240
  C      -38.632      83.184     346.606
  O      -37.928      84.142     345.820
  C      -39.595      83.894     347.564
  O      -40.607      84.553     346.764
  C      -40.295      82.920     348.523
  O      -40.166      83.293     349.894
  C      -41.703      82.816     347.950
  O      -42.701      82.477     348.890
  C      -41.902      84.177     347.269
  N      -42.892      84.163     346.195
  C      -44.069      84.878     346.402
  O      -44.329      85.537     347.406
  N      -44.979      84.825     345.378
  C      -44.836      84.142     344.207
  O      -45.685      84.137     343.325
  C      -43.581      83.389     344.058
  C      -42.681      83.432     345.043
  O      -37.171      84.806     343.413
  O      -38.298      82.564     343.905
  H      -42.539      81.554     349.175
  H      -37.941      82.400     343.012
  H      -45.829      85.347     345.511
  H      -43.438      82.826     343.144
  H      -41.744      82.888     344.964
  H      -42.213      84.927     347.999
  H      -41.704      82.032     347.183
  H      -39.826      81.931     348.487
  H      -39.044      84.672     348.108
  H      -37.895      82.606     347.169
  H      -39.191      82.510     345.951
  P      -39.536      82.368     351.032
  C      -41.580      82.204     352.669
  O      -40.273      82.702     352.411
  O      -38.047      82.303     351.059
  O      -40.082      80.897     350.656
  H      -39.386      80.263     350.926
  H      -41.902      82.531     353.635
  H      -41.566      81.134     352.641
  H      -42.255      82.572     351.925

 6  7  8  9  10  11  12  13  14  15  16  26  31  32  33  34  35 0
 6-311+G(2d,p)
 ****
 36  37 0
 6-311+G(2d,p)
 ****
 1  2  3  4  5  17  18  19  20  21  22  23  24  25 0
 3-21G
 ****
 27  28  29  30  38  39  40  41  42  43  44  45 0
 3-21G
 ****


