%nproc=1
%NoSave
%Mem=1900MB
#P OB98/GEN NMR

erre ene a

0 1
  C       56.113     352.374    -629.374
  O       57.313     352.361    -630.114
  H       55.689     351.364    -629.381
  H       55.387     353.052    -629.833
  H       56.300     352.668    -628.339
  P       58.131     353.727    -630.309
  C       60.440     352.612    -630.475
  O       59.428     353.327    -631.176
  C       60.869     351.364    -631.250
  O       59.874     350.320    -631.071
  C       61.031     351.600    -632.757
  O       62.258     351.027    -633.209
  C       59.860     350.836    -633.368
  O       60.088     350.448    -634.719
  C       59.710     349.690    -632.355
  N       58.427     349.013    -632.487
  C       58.333     348.057    -633.503
  O       59.301     347.827    -634.228
  N       57.134     347.430    -633.713
  C       56.101     347.759    -632.999
  N       54.933     347.124    -633.278
  C       56.148     348.780    -631.931
  C       57.332     349.357    -631.727
  O       58.425     354.467    -629.045
  O       57.263     354.583    -631.346
  H       59.438     349.754    -634.959
  H       57.493     355.536    -631.251
  H       55.261     349.024    -631.371
  H       57.465     350.123    -630.968
  H       60.511     348.952    -632.481
  H       58.964     351.471    -633.345
  H       61.006     352.652    -633.037
  H       61.797     350.986    -630.806
  H       54.943     346.436    -634.022
  H       60.053     352.337    -629.487
  H       54.061     347.314    -632.811
  H       61.305     353.272    -630.356
  P       63.408     352.066    -633.638
  C       65.374     350.370    -633.782
  O       64.513     351.261    -634.483
  O       64.143     352.396    -632.252
  O       62.881     353.302    -634.286
  H       63.948     353.311    -631.981
  H       66.050     349.911    -634.472
  H       64.789     349.615    -633.300
  H       65.929     350.915    -633.047

 6  7  8  9  10  11  12  13  14  15  16  26  30  31  32  33  35 0
 6-311+G(2d,p)
 ****
 37  38 0
 6-311+G(2d,p)
 ****
 1  2  3  4  5  17  18  19  20  21  22  23  24  25 0
 3-21G
 ****
 27  28  29  34  36  39  40  41  42  43  44  45  46 0
 3-21G
 ****


