%nproc=1
%NoSave
%Mem=1900MB
#P OB98/GEN NMR

erre ene a

0 1
  C      507.024     168.521    -360.191
  O      506.696     167.745    -361.326
  H      506.179     169.152    -359.905
  H      507.261     167.847    -359.364
  H      507.897     169.145    -360.401
  P      506.213     168.553    -362.626
  C      506.288     168.153    -365.187
  O      506.659     167.680    -363.900
  C      506.912     167.276    -366.267
  O      508.352     167.301    -366.163
  C      506.530     165.798    -366.195
  O      505.237     165.557    -366.735
  C      507.622     165.183    -367.052
  O      507.289     165.337    -368.445
  C      508.845     166.052    -366.705
  N      513.106     163.249    -366.074
  C      512.472     163.690    -367.189
  N      511.344     164.419    -367.278
  C      510.858     164.709    -366.056
  C      511.390     164.327    -364.843
  C      512.567     163.558    -364.871
  N      513.190     163.096    -363.736
  N      510.630     164.820    -363.803
  C      509.655     165.491    -364.379
  N      509.744     165.444    -365.746
  O      507.205     169.811    -362.673
  O      504.784     168.986    -362.614
  H      508.108     165.165    -368.946
  H      506.716     170.591    -363.005
  H      512.940     163.427    -368.131
  H      508.868     166.017    -363.852
  H      509.426     166.303    -367.604
  H      507.767     164.119    -366.863
  H      506.613     165.421    -365.168
  H      506.638     167.699    -367.244
  H      506.639     169.180    -365.312
  H      514.124     162.727    -363.811
  H      512.784     163.341    -362.832
  H      505.194     168.136    -365.266
  P      504.321     164.462    -365.999
  C      501.764     164.134    -365.700
  O      502.810     164.960    -366.200
  O      504.594     164.747    -364.445
  O      504.606     163.046    -366.365
  H      504.430     163.934    -363.923
  H      500.819     164.592    -365.906
  H      501.879     164.013    -364.643
  H      501.807     163.176    -366.175

 6  7  8  9  10  11  12  13  14  15  25  28  32  33  34  35 0
 6-311+G(2d,p)
 ****
 36  39  40 0
 6-311+G(2d,p)
 ****
 1  2  3  4  5  16  17  18  19  20  21  22  23  24 0
 3-21G
 ****
 26  27  29  30  31  37  38  41  42  43  44  45  46  47  48 0
 3-21G
 ****


