%nproc=1
%NoSave
%Mem=1900MB
#P OB98/GEN NMR

erre ene a

0 1
  C      305.040    -212.059      86.355
  O      304.695    -212.901      87.434
  P      304.016    -214.335      87.245
  C      301.966    -215.270      85.950
  O      302.600    -214.127      86.513
  C      300.486    -215.392      86.346
  O      299.758    -214.257      85.833
  C      299.867    -216.633      85.696
  O      300.017    -217.902      86.301
  C      298.430    -216.239      85.377
  O      297.504    -216.698      86.363
  C      298.480    -214.708      85.359
  N      295.860    -215.010      81.028
  C      295.608    -215.618      82.242
  N      294.645    -216.567      82.237
  N      296.253    -215.333      83.343
  C      297.250    -214.435      83.166
  C      297.586    -213.757      82.019
  C      296.835    -214.049      80.819
  O      297.087    -213.592      79.706
  N      298.699    -212.974      82.196
  C      299.062    -213.210      83.439
  N      298.237    -214.120      84.056
  O      304.091    -215.273      88.405
  O      304.918    -214.958      86.060
  H      296.619    -216.372      86.119
  H      304.986    -215.921      86.219
  H      295.382    -215.326      80.195
  H      299.929    -212.776      83.927
  H      297.728    -214.290      86.041
  H      298.112    -216.677      84.425
  H      294.231    -216.912      81.382
  H      300.348    -216.749      84.718
  H      294.551    -217.149      83.060
  H      300.365    -215.355      87.431
  H      302.527    -216.150      86.280
  H      302.044    -215.229      84.860
  P      299.478    -219.295      85.731
  C      297.297    -220.244      84.787
  O      297.905    -219.162      85.473
  O      299.550    -220.289      86.986
  O      300.259    -219.849      84.583
  H      299.585    -221.214      86.670
  H      296.327    -219.922      84.405
  H      297.149    -221.077      85.480
  H      297.919    -220.575      83.948
  H      305.478    -211.158      86.731
  H      304.161    -211.820      85.793
  H      305.742    -212.560      85.722

 3  4  5  6  7  8  9  10  11  12  23  26  30  31 0
 6-311+G(2d,p)
 ****
 33  35  36  37  38 0
 6-311+G(2d,p)
 ****
 1  2  13  14  15  16  17  18  19  20  21  22  24  25 0
 3-21G
 ****
 27  28  29  32  34  39  40  41  42  43  44  45  46  47  48  49 0
 3-21G
 ****


