%nproc=1
%NoSave
%Mem=1900MB
#P OB98/GEN NMR

erre ene a

0 1
  C     -411.806     599.891    1051.399
  O     -413.208     599.758    1051.514
  H     -411.540     599.876    1050.338
  H     -411.308     599.058    1051.897
  H     -411.467     600.839    1051.824
  P     -413.884     599.936    1052.955
  C     -415.906     601.533    1052.798
  O     -414.506     601.415    1052.996
  C     -416.212     602.396    1051.565
  O     -415.612     601.762    1050.398
  C     -417.713     602.564    1051.270
  O     -417.876     603.843    1050.636
  C     -417.939     601.430    1050.287
  O     -419.186     601.512    1049.636
  C     -416.673     601.581    1049.432
  N     -416.378     600.464    1048.544
  C     -416.862     600.532    1047.236
  O     -417.518     601.466    1046.782
  N     -416.574     599.458    1046.442
  C     -415.848     598.356    1046.808
  O     -415.595     597.439    1046.038
  C     -415.378     598.341    1048.198
  C     -415.652     599.379    1048.988
  O     -413.024     599.584    1054.123
  O     -415.185     599.005    1052.880
  H     -415.017     598.169    1053.349
  H     -419.417     600.630    1049.276
  H     -416.909     599.490    1045.496
  H     -414.806     597.476    1048.523
  H     -415.303     599.399    1050.015
  H     -416.729     602.504    1048.843
  H     -417.945     600.472    1050.816
  H     -418.337     602.518    1052.169
  H     -415.721     603.368    1051.687
  H     -416.340     601.998    1053.690
  H     -416.339     600.534    1052.672
  P     -417.929     605.228    1051.443
  C     -416.194     606.747    1050.260
  O     -416.470     605.904    1051.374
  O     -418.462     605.100    1052.832
  O     -418.845     606.196    1050.564
  H     -419.258     606.868    1051.136
  H     -415.197     607.127    1050.339
  H     -416.887     607.562    1050.249
  H     -416.291     606.185    1049.355

 6  7  8  9  10  11  12  13  14  15  16  27  31  32  33  34  35 0
 6-311+G(2d,p)
 ****
 36  37 0
 6-311+G(2d,p)
 ****
 1  2  3  4  5  17  18  19  20  21  22  23  24  25 0
 3-21G
 ****
 26  28  29  30  38  39  40  41  42  43  44  45 0
 3-21G
 ****


