%nproc=1
%NoSave
%Mem=1900MB
#P OB98/GEN NMR

erre ene a

0 1
  C     -368.823     598.721      14.719
  O     -368.841     600.122      14.891
  H     -368.168     598.447      13.888
  H     -368.443     598.258      15.635
  H     -369.837     598.351      14.533
  P     -369.272     600.991      13.612
  C     -366.881     601.490      12.740
  O     -368.107     600.806      12.522
  C     -366.267     601.911      11.410
  O     -366.012     600.751      10.591
  C     -367.156     602.814      10.561
  O     -367.125     604.165      11.011
  C     -366.488     602.661       9.198
  O     -365.328     603.511       9.126
  C     -366.060     601.187       9.204
  N     -366.685     596.511       7.173
  C     -365.660     597.067       7.858
  N     -365.557     598.315       8.354
  C     -366.673     599.023       8.106
  C     -367.799     598.588       7.426
  C     -367.781     597.268       6.941
  N     -368.832     596.715       6.230
  N     -368.754     599.581       7.378
  C     -368.213     600.603       8.018
  N     -366.954     600.309       8.471
  O     -369.076     602.506      14.105
  O     -370.659     600.754      13.116
  H     -364.779     603.168       8.392
  H     -369.771     603.060      13.706
  H     -364.805     596.418       8.025
  H     -368.700     601.558       8.179
  H     -365.052     601.058       8.793
  H     -367.142     602.932       8.366
  H     -368.179     602.433      10.506
  H     -365.306     602.396      11.620
  H     -366.183     600.826      13.261
  H     -368.839     595.722       6.085
  H     -369.648     597.296       6.066
  H     -367.073     602.365      13.366
  P     -368.468     605.026      10.848
  C     -367.339     606.595       9.123
  O     -368.394     605.684       9.387
  O     -368.220     606.274      11.826
  O     -369.724     604.299      11.186
  H     -369.076     606.639      12.122
  H     -367.418     606.950       8.117
  H     -366.399     606.100       9.254
  H     -367.404     607.422       9.799

 6  7  8  9  10  11  12  13  14  15  25  28  32  33  34  35 0
 6-311+G(2d,p)
 ****
 36  39  40 0
 6-311+G(2d,p)
 ****
 1  2  3  4  5  16  17  18  19  20  21  22  23  24 0
 3-21G
 ****
 26  27  29  30  31  37  38  41  42  43  44  45  46  47  48 0
 3-21G
 ****


