%nproc=1
%NoSave
%Mem=1900MB
#P OB98/GEN NMR

erre ene a

0 1
  C     1114.445    -891.290     803.998
  O     1114.182    -890.760     805.288
  P     1113.423    -891.600     806.445
  C     1115.279    -891.670     808.260
  O     1114.537    -892.420     807.303
  C     1116.402    -892.530     808.854
  O     1115.857    -893.500     809.781
  C     1117.243    -893.310     807.816
  O     1118.625    -893.250     808.279
  C     1116.677    -894.710     807.938
  O     1117.507    -895.710     807.394
  C     1116.453    -894.790     809.448
  N     1115.649    -895.890     809.929
  C     1116.174    -897.180     809.917
  O     1117.303    -897.390     809.433
  N     1115.440    -898.220     810.398
  C     1114.245    -898.050     810.838
  N     1113.557    -899.100     811.317
  C     1113.607    -896.680     810.887
  C     1114.369    -895.680     810.408
  O     1112.310    -892.440     805.946
  O     1112.875    -890.520     807.474
  H     1112.030    -890.800     807.840
  H     1118.282    -895.820     807.976
  H     1112.613    -896.540     811.291
  H     1113.955    -894.660     810.432
  H     1117.456    -894.850     809.943
  H     1115.732    -894.740     807.386
  H     1117.193    -892.900     806.815
  H     1117.059    -891.870     809.448
  H     1114.010    -900.000     811.282
  H     1114.589    -891.380     809.060
  H     1112.621    -899.030     811.703
  H     1115.679    -890.760     807.771
  P     1119.572    -892.070     807.786
  C     1120.251    -891.460     810.241
  O     1119.677    -891.020     809.010
  O     1118.613    -891.270     806.764
  O     1120.816    -892.440     807.084
  H     1119.170    -890.790     806.132
  H     1120.958    -890.700     810.591
  H     1120.766    -892.410     810.148
  H     1119.436    -891.560     810.962
  H     1114.953    -890.556     803.408
  H     1113.522    -891.551     803.525
  H     1115.058    -892.162     804.089

 3  4  5  6  7  8  9  10  11  12  13  24  27  28  29  30  32 0
 6-311+G(2d,p)
 ****
 34  35 0
 6-311+G(2d,p)
 ****
 1  2  14  15  16  17  18  19  20  21  22  23  25  26 0
 3-21G
 ****
 31  33  36  37  38  39  40  41  42  43  44  45  46 0
 3-21G
 ****


