%nproc=1
%NoSave
%Mem=1900MB
#P OB98/GEN NMR

erre ene a

0 1
  C     -315.436     493.049      46.038
  O     -315.131     493.659      47.284
  P     -313.577     493.940      47.613
  C     -313.952     495.993      49.215
  O     -313.483     495.500      47.970
  C     -314.358     497.471      49.077
  O     -315.504     497.585      48.222
  C     -314.754     498.143      50.389
  O     -313.626     498.468      51.176
  C     -315.552     499.329      49.882
  O     -314.658     500.383      49.466
  C     -316.273     498.732      48.662
  N     -317.664     498.385      48.926
  C     -318.542     499.438      49.165
  O     -318.189     500.608      49.164
  N     -319.842     499.084      49.435
  C     -320.323     497.812      49.539
  O     -321.488     497.548      49.833
  C     -319.353     496.729      49.307
  C     -318.084     497.065      49.012
  O     -312.944     493.817      46.155
  O     -313.020     493.008      48.636
  H     -313.590     494.041      45.451
  H     -315.232     501.129      49.178
  H     -320.500     499.834      49.586
  H     -319.683     495.711      49.397
  H     -317.351     496.287      48.850
  H     -316.261     499.444      47.812
  H     -316.222     499.749      50.639
  H     -315.414     497.475      50.969
  H     -313.528     498.013      48.606
  H     -313.150     495.905      49.951
  H     -314.813     495.393      49.541
  P     -313.521     497.786      52.627
  C     -311.178     496.716      52.175
  O     -312.553     496.518      52.456
  O     -314.984     497.147      52.766
  O     -313.165     498.741      53.718
  H     -315.292     496.725      51.937
  H     -310.632     495.811      52.447
  H     -310.762     497.552      52.725
  H     -311.050     496.895      51.084
  H     -316.495     492.923      45.953
  H     -314.957     492.094      45.982
  H     -315.086     493.671      45.241

 3  4  5  6  7  8  9  10  11  12  13  24  28  29  30  31  32 0
 6-311+G(2d,p)
 ****
 33  34 0
 6-311+G(2d,p)
 ****
 1  2  14  15  16  17  18  19  20  21  22  23  25  26  27 0
 3-21G
 ****
 35  36  37  38  39  40  41  42  43  44  45 0
 3-21G
 ****


