%nproc=1
%NoSave
%Mem=1900MB
#P OB98/GEN NMR

erre ene a

0 1
  C     -466.247    -148.645     337.235
  O     -465.074    -147.922     336.831
  P     -464.028    -147.567     337.997
  C     -464.525    -145.094     338.605
  O     -464.697    -146.463     338.954
  C     -465.397    -144.170     339.453
  O     -465.054    -144.282     340.867
  C     -465.276    -142.687     339.082
  O     -466.564    -142.089     339.283
  C     -464.323    -142.150     340.129
  O     -464.406    -140.731     340.250
  C     -464.808    -142.936     341.355
  N     -462.934    -140.243     345.208
  C     -463.837    -139.885     344.208
  N     -464.334    -138.645     344.288
  N     -464.198    -140.679     343.231
  C     -463.635    -141.914     343.312
  C     -462.755    -142.398     344.240
  C     -462.328    -141.504     345.303
  O     -461.541    -141.771     346.205
  N     -462.419    -143.710     343.994
  C     -463.066    -144.001     342.869
  N     -463.855    -142.956     342.449
  O     -462.869    -146.774     337.229
  O     -463.489    -148.776     338.706
  H     -464.198    -140.343     339.376
  H     -462.116    -147.364     337.059
  H     -462.685    -139.588     345.913
  H     -463.024    -144.931     342.351
  H     -465.752    -142.535     341.760
  H     -463.284    -142.421     339.874
  H     -464.143    -137.998     345.047
  H     -464.933    -142.502     338.054
  H     -465.039    -138.360     343.607
  H     -466.442    -144.498     339.343
  H     -464.770    -144.951     337.542
  H     -463.457    -144.836     338.702
  P     -467.513    -141.884     337.996
  C     -467.102    -139.340     337.610
  O     -466.888    -140.674     337.156
  O     -468.837    -141.243     338.629
  O     -467.816    -143.131     337.239
  H     -469.620    -141.601     338.178
  H     -466.276    -138.724     337.243
  H     -467.130    -139.302     338.707
  H     -468.035    -138.974     337.201
  H     -466.867    -148.825     336.382
  H     -466.790    -148.070     337.956
  H     -465.958    -149.579     337.669

 3  4  5  6  7  8  9  10  11  12  23  26  30  31 0
 6-311+G(2d,p)
 ****
 33  35  36  37  38 0
 6-311+G(2d,p)
 ****
 1  2  13  14  15  16  17  18  19  20  21  22  24  25 0
 3-21G
 ****
 27  28  29  32  34  39  40  41  42  43  44  45  46  47  48  49 0
 3-21G
 ****


