%nproc=1
%NoSave
%Mem=1900MB
#P OB98/GEN NMR

erre ene a

0 1
  C      160.964     315.629    1543.878
  O      160.155     315.385    1545.023
  H      160.619     314.970    1543.066
  H      162.007     315.396    1544.096
  H      160.856     316.664    1543.555
  P      160.343     316.319    1546.305
  C      162.725     315.420    1546.738
  O      161.413     315.599    1547.258
  C      163.756     315.896    1547.753
  O      163.643     317.337    1547.949
  C      163.586     315.285    1549.150
  O      164.071     313.950    1549.189
  C      164.374     316.265    1549.994
  O      165.788     315.989    1549.925
  C      164.034     317.615    1549.316
  N      162.986     318.362    1550.018
  C      163.373     318.986    1551.221
  O      164.501     318.864    1551.705
  N      162.392     319.677    1551.871
  C      161.071     319.738    1551.497
  O      160.217     320.297    1552.158
  C      160.731     319.048    1550.243
  C      161.687     318.411    1549.565
  O      159.084     316.752    1546.982
  O      161.160     317.577    1545.739
  H      166.225     316.719    1550.412
  H      160.561     318.348    1545.650
  H      162.636     320.120    1552.736
  H      159.692     319.085    1549.908
  H      161.444     317.890    1548.646
  H      164.929     318.247    1549.263
  H      164.088     316.223    1551.055
  H      162.532     315.316    1549.450
  H      164.774     315.681    1547.361
  H      162.825     316.010    1545.821
  H      162.872     314.363    1546.506
  P      163.033     312.727    1549.324
  C      162.840     312.659    1551.873
  O      163.328     312.010    1550.720
  O      162.947     311.825    1548.134
  O      161.623     313.453    1549.577
  H      161.009     313.217    1548.858
  H      163.098     312.087    1552.740
  H      161.776     312.749    1551.808
  H      163.276     313.633    1551.946

 6  7  8  9  10  11  12  13  14  15  16  26  31  32  33  34  35 0
 6-311+G(2d,p)
 ****
 36  37 0
 6-311+G(2d,p)
 ****
 1  2  3  4  5  17  18  19  20  21  22  23  24  25 0
 3-21G
 ****
 27  28  29  30  38  39  40  41  42  43  44  45 0
 3-21G
 ****


