%nproc=1
%NoSave
%Mem=1900MB
#P OB98/GEN NMR

erre ene a

0 1
  C       41.077     102.263      -0.510
  O       41.388     101.029      -1.126
  H       40.791     102.073       0.527
  H       40.243     102.750      -1.021
  H       41.952     102.920      -0.515
  P       41.730     101.023      -2.690
  C       40.366     100.792      -4.875
  O       40.329     100.967      -3.467
  C       39.347      99.735      -5.320
  O       39.841      98.418      -4.942
  C       37.959      99.903      -4.679
  O       36.994      99.399      -5.612
  C       38.073      98.986      -3.477
  O       36.814      98.718      -2.912
  C       38.840      97.813      -4.095
  N       39.427      96.938      -3.093
  C       38.731      95.759      -2.818
  O       37.675      95.511      -3.399
  N       39.231      94.905      -1.868
  C       40.295      95.232      -1.204
  N       40.730      94.348      -0.266
  C       41.028      96.496      -1.423
  C       40.546      97.293      -2.377
  O       42.731     100.008      -3.132
  O       42.245     102.512      -2.979
  H       36.415      99.537      -2.540
  H       43.214     102.511      -3.082
  H       41.899      96.731      -0.830
  H       41.015      98.243      -2.610
  H       38.183      97.214      -4.739
  H       38.673      99.455      -2.692
  H       37.730     100.939      -4.421
  H       39.282      99.748      -6.414
  H       40.191      93.499      -0.142
  H       41.377     100.470      -5.140
  H       41.533      94.504       0.324
  H       40.155     101.741      -5.379
  P       36.229     100.335      -6.665
  C       34.580     102.319      -6.644
  O       35.218     101.299      -5.881
  O       35.602      99.588      -7.798
  O       37.349     101.341      -7.216
  H       37.135     101.582      -8.137
  H       33.935     102.889      -6.008
  H       34.004     101.871      -7.427
  H       35.321     102.962      -7.070

 6  7  8  9  10  11  12  13  14  15  16  26  30  31  32  33  35 0
 6-311+G(2d,p)
 ****
 37  38 0
 6-311+G(2d,p)
 ****
 1  2  3  4  5  17  18  19  20  21  22  23  24  25 0
 3-21G
 ****
 27  28  29  34  36  39  40  41  42  43  44  45  46 0
 3-21G
 ****


