%nproc=1
%NoSave
%Mem=1900MB
#P OB98/GEN NMR

erre ene a

0 1
  C     -297.307    -202.870    -480.712
  O     -296.612    -202.378    -481.857
  P     -295.748    -201.032    -481.728
  C     -297.114    -199.855    -483.556
  O     -295.815    -200.230    -483.116
  C     -297.380    -200.257    -485.017
  O     -296.456    -199.571    -485.912
  C     -297.239    -201.757    -485.296
  O     -298.224    -202.092    -486.281
  C     -295.838    -201.860    -485.876
  O     -295.635    -203.068    -486.590
  C     -295.800    -200.573    -486.712
  N     -294.440    -200.181    -487.055
  C     -294.150    -200.015    -488.415
  O     -294.993    -200.306    -489.267
  N     -292.901    -199.567    -488.764
  C     -291.986    -199.428    -487.854
  N     -290.768    -198.959    -488.244
  C     -292.207    -199.765    -486.432
  C     -293.449    -200.103    -486.107
  O     -294.368    -201.202    -481.167
  O     -296.650    -200.124    -480.756
  H     -294.738    -203.063    -486.992
  H     -296.061    -199.583    -480.186
  H     -291.389    -199.721    -485.724
  H     -293.717    -200.360    -485.093
  H     -296.379    -200.690    -487.632
  H     -295.101    -201.820    -485.063
  H     -297.395    -202.382    -484.408
  H     -298.394    -199.927    -485.283
  H     -290.616    -198.757    -489.221
  H     -297.230    -198.772    -483.456
  H     -290.020    -198.784    -487.585
  H     -297.865    -200.298    -482.887
  P     -299.568    -202.834    -485.821
  C     -299.851    -203.832    -488.207
  O     -300.442    -203.133    -487.129
  O     -300.393    -201.631    -485.139
  O     -299.405    -203.954    -484.846
  H     -301.021    -202.004    -484.494
  H     -300.651    -204.189    -488.875
  H     -299.286    -204.695    -487.853
  H     -299.191    -203.165    -488.771
  H     -297.829    -203.768    -480.970
  H     -298.008    -202.134    -480.377
  H     -296.606    -203.077    -479.931

 3  4  5  6  7  8  9  10  11  12  13  23  27  28  29  30  32 0
 6-311+G(2d,p)
 ****
 34  35 0
 6-311+G(2d,p)
 ****
 1  2  14  15  16  17  18  19  20  21  22  24  25  26 0
 3-21G
 ****
 31  33  36  37  38  39  40  41  42  43  44  45  46 0
 3-21G
 ****


