%nproc=1
%NoSave
%Mem=1900MB
#P OB98/GEN NMR

erre ene a

0 1
  C      515.440     169.985    -174.103
  O      515.512     171.006    -173.130
  H      516.411     169.905    -174.598
  H      514.684     170.225    -174.856
  H      515.210     169.025    -173.635
  P      514.194     171.353    -172.286
  C      513.040     172.589    -174.239
  O      513.591     172.695    -172.931
  C      513.276     173.883    -175.018
  O      512.752     173.771    -176.353
  C      512.625     175.117    -174.401
  O      513.423     175.633    -173.343
  C      512.590     176.042    -175.606
  O      513.901     176.589    -175.839
  C      512.218     175.066    -176.741
  N      508.435     175.982    -180.002
  C      509.755     176.397    -180.038
  N      510.108     177.192    -181.069
  N      510.642     176.068    -179.131
  C      510.131     175.329    -178.121
  C      508.839     174.874    -177.969
  C      507.886     175.187    -179.012
  O      506.710     174.820    -179.035
  N      508.676     174.231    -176.773
  C      509.877     174.249    -176.223
  N      510.800     174.915    -176.998
  O      514.367     171.421    -170.801
  O      513.139     170.230    -172.724
  H      513.886     177.010    -176.714
  H      513.176     169.462    -172.124
  H      507.795     176.275    -180.724
  H      510.132     173.800    -175.272
  H      512.686     175.345    -177.694
  H      511.901     176.886    -175.477
  H      509.443     177.600    -181.707
  H      511.601     174.910    -174.074
  H      511.058     177.548    -181.079
  H      514.365     174.023    -175.116
  H      511.969     172.402    -174.131
  H      513.494     171.748    -174.780
  P      512.893     175.654    -171.825
  C      511.066     177.346    -172.539
  O      512.141     177.068    -171.662
  O      513.926     175.379    -170.798
  O      511.666     174.630    -171.818
  H      511.955     173.689    -171.685
  H      510.665     178.313    -172.317
  H      510.303     176.606    -172.414
  H      511.417     177.329    -173.550

 6  7  8  9  10  11  12  13  14  15  26  29  33  34 0
 6-311+G(2d,p)
 ****
 36  38  39  40  41 0
 6-311+G(2d,p)
 ****
 1  2  3  4  5  16  17  18  19  20  21  22  23  24  25 0
 3-21G
 ****
 27  28  30  31  32  35  37  42  43  44  45  46  47 0
 3-21G
 ****
 48  49 0
 3-21G
 ****


