%nproc=1
%NoSave
%Mem=1900MB
#P OB98/GEN NMR

erre ene a

0 1
  C      933.589     951.808      90.207
  O      932.428     952.640      90.069
  P      932.121     953.473      88.736
  C      931.089     955.597      89.776
  O      930.859     954.419      88.998
  C      929.837     956.479      89.862
  O      929.322     956.778      88.553
  C      928.666     955.848      90.615
  O      928.865     955.956      92.013
  C      927.495     956.659      90.082
  O      927.393     957.932      90.755
  C      927.904     956.875      88.610
  N      924.242     956.147      85.071
  C      924.628     957.242      85.777
  N      925.604     957.352      86.706
  C      926.230     956.184      86.869
  C      925.963     954.973      86.241
  C      924.909     954.978      85.298
  N      924.516     953.854      84.600
  N      926.807     953.967      86.687
  C      927.600     954.574      87.549
  N      927.290     955.896      87.716
  O      932.024     952.641      87.496
  O      933.347     954.521      88.621
  H      928.082     958.520      90.374
  H      933.495     954.743      87.699
  H      924.068     958.148      85.564
  H      928.390     954.085      88.097
  H      927.616     957.868      88.243
  H      926.528     956.157      90.207
  H      928.545     954.809      90.329
  H      930.124     957.436      90.326
  H      931.909     956.155      89.315
  H      923.729     953.933      83.980
  H      924.972     952.968      84.806
  H      931.393     955.296      90.788
  P      928.883     954.641      92.925
  C      928.476     956.066      95.040
  O      929.318     955.094      94.402
  O      929.634     953.482      92.377
  O      927.323     954.286      93.112
  H      927.228     953.315      93.213
  H      928.733     957.063      94.658
  H      928.683     956.040      96.117
  H      927.430     955.848      94.860
  H      933.588     951.351      91.175
  H      934.470     952.404      90.095
  H      933.575     951.048      89.454

 3  4  5  6  7  8  9  10  11  12  22  25  29  30  31  32 0
 6-311+G(2d,p)
 ****
 33  36  37 0
 6-311+G(2d,p)
 ****
 1  2  13  14  15  16  17  18  19  20  21  23  24  26 0
 3-21G
 ****
 27  28  34  35  38  39  40  41  42  43  44  45  46  47  48 0
 3-21G
 ****


