%nproc=1
%NoSave
%Mem=1900MB
#P OB98/GEN NMR

erre ene a

0 1
  C      172.114     278.790      27.322
  O      172.150     277.375      27.546
  P      171.530     276.335      26.489
  C      169.285     275.891      27.654
  O      169.924     276.416      26.495
  C      167.888     275.320      27.371
  O      166.955     276.376      27.013
  C      167.831     274.287      26.233
  O      166.776     273.383      26.576
  C      167.435     275.141      25.042
  O      166.907     274.393      23.958
  C      166.441     276.089      25.698
  N      164.991     278.075      21.204
  C      164.877     276.833      21.715
  N      165.254     276.386      22.929
  C      165.755     277.387      23.672
  C      165.922     278.709      23.291
  C      165.520     279.048      21.984
  N      165.677     280.301      21.442
  N      166.501     279.445      24.312
  C      166.688     278.574      25.284
  N      166.252     277.315      24.947
  O      172.068     274.946      26.613
  O      171.924     276.944      25.062
  H      167.495     273.630      23.796
  H      172.269     276.230      24.493
  H      164.438     276.090      21.051
  H      167.154     278.790      26.235
  H      165.460     275.616      25.820
  H      168.325     275.676      24.672
  H      168.772     273.753      26.082
  H      167.516     274.875      28.300
  H      169.201     276.692      28.399
  H      165.449     280.422      20.470
  H      166.187     280.999      21.961
  H      169.922     275.105      28.078
  P      167.073     271.929      27.176
  C      168.596     271.383      25.192
  O      168.501     271.476      26.601
  O      165.976     270.932      26.980
  O      167.361     272.184      28.730
  H      167.255     271.349      29.224
  H      168.106     270.465      24.850
  H      169.655     271.349      24.906
  H      168.130     272.243      24.710
  H      172.578     279.293      28.144
  H      171.097     279.112      27.235
  H      172.640     279.022      26.419

 3  4  5  6  7  8  9  10  11  12  22  25  29  30  31  32 0
 6-311+G(2d,p)
 ****
 33  36  37 0
 6-311+G(2d,p)
 ****
 1  2  13  14  15  16  17  18  19  20  21  23  24  26 0
 3-21G
 ****
 27  28  34  35  38  39  40  41  42  43  44  45  46  47  48 0
 3-21G
 ****


