%nproc=1
%NoSave
%Mem=1900MB
#P OB98/GEN NMR

erre ene a

0 1
  C      103.401     399.973     134.219
  O      103.859     398.666     134.508
  P      103.558     398.051     135.959
  C      105.884     398.276     137.173
  O      104.948     397.446     136.501
  C      107.169     397.492     137.467
  O      106.834     396.335     138.297
  C      107.901     396.980     136.227
  O      109.309     397.036     136.506
  C      107.441     395.529     136.131
  O      108.332     394.718     135.379
  C      107.353     395.171     137.618
  N      106.499     394.005     137.881
  C      106.949     393.056     138.802
  O      108.038     393.128     139.385
  N      106.114     391.985     139.014
  C      104.941     391.741     138.360
  O      104.243     390.760     138.576
  C      104.539     392.759     137.371
  C      105.311     393.823     137.187
  O      102.698     396.755     135.574
  O      102.886     399.004     136.892
  H      102.987     396.334     134.747
  H      109.174     394.655     135.871
  H      106.405     391.308     139.701
  H      103.614     392.584     136.818
  H      105.046     394.578     136.458
  H      108.354     394.981     138.023
  H      106.451     395.493     135.653
  H      107.673     397.565     135.327
  H      107.825     398.136     138.067
  H      105.444     398.616     138.119
  H      106.089     399.160     136.559
  P      110.153     398.273     135.895
  C      111.833     396.862     134.453
  O      111.623     397.721     135.560
  O      110.397     399.130     137.226
  O      109.456     399.045     134.824
  H      110.716     398.602     137.974
  H      112.899     396.877     134.200
  H      111.259     397.177     133.584
  H      111.552     395.838     134.727
  H      103.679     400.235     133.220
  H      103.842     400.665     134.905
  H      102.336     400.007     134.314

 3  4  5  6  7  8  9  10  11  12  13  24  28  29  30  31  32 0
 6-311+G(2d,p)
 ****
 33  34 0
 6-311+G(2d,p)
 ****
 1  2  14  15  16  17  18  19  20  21  22  23  25  26  27 0
 3-21G
 ****
 35  36  37  38  39  40  41  42  43  44  45 0
 3-21G
 ****


