%nproc=1
%NoSave
%Mem=1900MB
#P OB98/GEN NMR

erre ene a

0 1
  C      -74.524    -356.115    -151.445
  O      -75.613    -355.267    -151.751
  H      -73.595    -355.601    -151.698
  H      -74.589    -357.034    -152.033
  H      -74.517    -356.357    -150.379
  P      -77.075    -355.784    -151.350
  C      -77.707    -353.880    -149.688
  O      -77.924    -354.478    -150.958
  C      -76.702    -352.737    -149.819
  O      -77.095    -351.898    -150.938
  C      -76.635    -351.841    -148.574
  O      -75.284    -351.418    -148.377
  C      -77.495    -350.649    -148.958
  O      -77.193    -349.468    -148.234
  C      -77.193    -350.541    -150.457
  N      -78.220    -349.804    -151.187
  C      -78.282    -348.427    -150.993
  O      -77.487    -347.779    -150.313
  N      -79.318    -347.788    -151.625
  C      -80.286    -348.377    -152.386
  O      -81.203    -347.751    -152.907
  C      -80.172    -349.834    -152.547
  C      -79.164    -350.470    -151.948
  O      -76.840    -356.502    -149.936
  O      -77.740    -356.676    -152.342
  H      -76.635    -357.447    -150.065
  H      -77.564    -348.708    -148.726
  H      -79.376    -346.789    -151.495
  H      -80.927    -350.335    -153.135
  H      -79.058    -351.547    -152.034
  H      -76.214    -350.066    -150.616
  H      -78.555    -350.887    -148.795
  H      -77.004    -352.336    -147.676
  H      -75.715    -353.154    -150.060
  H      -77.310    -354.634    -148.999
  H      -78.659    -353.506    -149.298
  P      -74.427    -352.190    -147.258
  C      -72.008    -351.627    -148.079
  O      -73.038    -351.387    -147.137
  O      -74.042    -353.534    -148.026
  O      -75.173    -352.377    -145.979
  H      -73.859    -353.404    -148.974
  H      -71.163    -351.012    -147.849
  H      -72.362    -351.394    -149.062
  H      -71.721    -352.657    -148.039

 6  7  8  9  10  11  12  13  14  15  16  27  31  32  33  34  35 0
 6-311+G(2d,p)
 ****
 36  37 0
 6-311+G(2d,p)
 ****
 1  2  3  4  5  17  18  19  20  21  22  23  24  25 0
 3-21G
 ****
 26  28  29  30  38  39  40  41  42  43  44  45 0
 3-21G
 ****


