%nproc=1
%NoSave
%Mem=1900MB
#P OB98/GEN NMR

erre ene a

0 1
  C     -466.422    -243.306    -167.165
  O     -465.948    -241.972    -167.196
  H     -467.177    -243.424    -167.946
  H     -466.876    -243.523    -166.193
  H     -465.600    -243.996    -167.357
  P     -464.847    -241.575    -166.095
  C     -463.181    -241.016    -167.984
  O     -463.439    -241.820    -166.839
  C     -462.089    -241.656    -168.849
  O     -462.433    -243.046    -169.069
  C     -461.938    -240.990    -170.222
  O     -460.551    -240.954    -170.578
  C     -462.676    -241.938    -171.159
  O     -462.200    -241.851    -172.496
  C     -462.437    -243.290    -170.482
  N     -463.339    -248.132    -171.822
  C     -462.219    -247.505    -171.410
  N     -462.066    -246.203    -171.050
  C     -463.252    -245.559    -171.119
  C     -464.469    -246.069    -171.515
  C     -464.491    -247.425    -171.896
  N     -465.627    -248.067    -172.339
  N     -465.438    -245.079    -171.484
  C     -464.812    -244.002    -171.065
  N     -463.476    -244.240    -170.836
  O     -464.990    -242.240    -164.765
  O     -464.958    -239.979    -166.084
  H     -462.499    -242.652    -172.978
  H     -465.015    -239.620    -166.989
  H     -461.326    -248.117    -171.361
  H     -465.269    -243.029    -170.908
  H     -461.474    -243.738    -170.766
  H     -463.742    -241.690    -171.157
  H     -462.349    -239.983    -170.250
  H     -461.144    -241.641    -168.294
  H     -462.862    -240.012    -167.673
  H     -465.553    -249.048    -172.575
  H     -466.497    -247.555    -172.378
  H     -464.112    -240.925    -168.551
  P     -459.680    -239.713    -170.091
  C     -458.359    -241.094    -168.354
  O     -459.202    -239.965    -168.574
  O     -460.252    -238.358    -170.362
  O     -458.306    -239.912    -170.910
  H     -457.968    -239.029    -171.176
  H     -458.110    -241.156    -167.315
  H     -457.463    -240.988    -168.930
  H     -458.871    -241.985    -168.652

 6  7  8  9  10  11  12  13  14  15  25  28  32  33  34  35 0
 6-311+G(2d,p)
 ****
 36  39  40 0
 6-311+G(2d,p)
 ****
 1  2  3  4  5  16  17  18  19  20  21  22  23  24 0
 3-21G
 ****
 26  27  29  30  31  37  38  41  42  43  44  45  46  47 0
 3-21G
 ****
 48 0
 3-21G
 ****


