%nproc=1
%NoSave
%Mem=1900MB
#P OB98/GEN NMR

erre ene a

0 1
  C     1177.111    -366.425     910.371
  O     1176.378    -365.630     909.457
  H     1177.119    -367.460     909.999
  H     1176.635    -366.419     911.363
  H     1178.145    -366.073     910.451
  P     1176.090    -364.100     909.848
  C     1176.312    -363.208     907.427
  O     1175.450    -363.432     908.539
  C     1175.540    -363.383     906.122
  O     1174.327    -362.601     906.156
  C     1176.318    -362.920     904.905
  O     1177.310    -363.861     904.537
  C     1175.191    -362.742     903.893
  O     1174.782    -363.992     903.327
  C     1174.068    -362.156     904.793
  N     1173.978    -360.707     904.720
  C     1173.336    -360.180     903.596
  O     1172.878    -360.928     902.732
  N     1173.252    -358.810     903.461
  C     1173.753    -358.041     904.377
  N     1173.633    -356.697     904.194
  C     1174.433    -358.549     905.599
  C     1174.511    -359.881     905.697
  O     1177.229    -363.321     910.438
  O     1174.843    -364.205     910.857
  H     1174.137    -363.777     902.635
  H     1175.153    -364.304     911.773
  H     1174.820    -357.862     906.331
  H     1174.989    -360.335     906.559
  H     1173.083    -362.580     904.508
  H     1175.483    -362.084     903.080
  H     1176.766    -361.931     905.095
  H     1175.247    -364.445     906.021
  H     1173.175    -356.398     903.344
  H     1177.117    -363.951     907.487
  H     1173.910    -356.010     904.870
  H     1176.750    -362.212     907.474
  P     1178.817    -363.387     904.239
  C     1179.573    -365.854     904.355
  O     1179.531    -364.666     903.564
  O     1179.537    -362.787     905.420
  O     1178.645    -362.372     903.010
  H     1178.259    -361.514     903.291
  H     1180.066    -366.630     903.808
  H     1178.575    -366.162     904.589
  H     1180.109    -365.661     905.261

 6  7  8  9  10  11  12  13  14  15  16  26  30  31  32  33  35 0
 6-311+G(2d,p)
 ****
 37  38 0
 6-311+G(2d,p)
 ****
 1  2  3  4  5  17  18  19  20  21  22  23  24  25 0
 3-21G
 ****
 27  28  29  34  36  39  40  41  42  43  44  45  46 0
 3-21G
 ****


