%nproc=1
%NoSave
%Mem=1900MB
#P OB98/GEN NMR

erre ene a

0 1
  C     -431.842    -565.749    -292.044
  O     -432.742    -564.684    -291.825
  H     -432.417    -566.668    -292.196
  H     -431.186    -565.882    -291.178
  H     -431.243    -565.555    -292.938
  P     -432.097    -563.247    -291.523
  C     -434.076    -561.852    -292.405
  O     -433.360    -562.290    -291.254
  C     -434.972    -562.974    -292.930
  O     -435.839    -563.421    -291.851
  C     -435.869    -562.546    -294.099
  O     -436.003    -563.641    -295.008
  C     -437.203    -562.284    -293.428
  O     -438.297    -562.385    -294.341
  C     -437.195    -563.344    -292.322
  N     -442.036    -563.599    -290.767
  C     -441.385    -564.176    -291.802
  N     -440.079    -564.071    -292.129
  C     -439.425    -563.317    -291.228
  C     -439.947    -562.667    -290.126
  C     -441.332    -562.819    -289.912
  N     -442.012    -562.208    -288.885
  N     -438.967    -561.953    -289.474
  C     -437.858    -562.183    -290.162
  N     -438.095    -562.986    -291.241
  O     -431.129    -562.751    -292.543
  O     -431.499    -563.451    -290.052
  H     -439.110    -562.580    -293.830
  H     -432.144    -563.890    -289.464
  H     -441.992    -564.796    -292.452
  H     -436.876    -561.779    -289.929
  H     -437.498    -564.334    -292.686
  H     -437.221    -561.277    -292.997
  H     -435.497    -561.672    -294.624
  H     -434.337    -563.828    -293.205
  H     -433.380    -561.535    -293.187
  H     -443.001    -562.378    -288.805
  H     -441.504    -561.632    -288.233
  H     -434.684    -560.987    -292.110
  P     -435.299    -563.548    -296.441
  C     -434.368    -565.929    -296.091
  O     -435.034    -565.044    -296.982
  O     -434.128    -562.632    -296.534
  O     -436.495    -563.056    -297.390
  H     -436.149    -562.379    -298.017
  H     -434.250    -566.884    -296.559
  H     -434.947    -566.038    -295.198
  H     -433.406    -565.531    -295.846

 6  7  8  9  10  11  12  13  14  15  25  28  32  33  34  35 0
 6-311+G(2d,p)
 ****
 36  39  40 0
 6-311+G(2d,p)
 ****
 1  2  3  4  5  16  17  18  19  20  21  22  23  24 0
 3-21G
 ****
 26  27  29  30  31  37  38  41  42  43  44  45  46  47 0
 3-21G
 ****
 48 0
 3-21G
 ****


