%nproc=1
%NoSave
%Mem=1900MB
#P OB98/GEN NMR

erre ene a

0 1
  C      -94.347     434.709    -288.268
  O      -95.438     434.566    -289.155
  H      -94.664     435.328    -287.426
  H      -93.516     435.208    -288.774
  H      -94.025     433.735    -287.888
  P      -95.294     433.585    -290.414
  C      -97.825     433.269    -290.816
  O      -96.601     433.783    -291.325
  C      -98.492     434.286    -289.883
  O      -98.585     435.557    -290.578
  C      -99.906     433.882    -289.449
  O     -100.111     434.286    -288.096
  C     -100.798     434.697    -290.367
  O     -102.082     434.944    -289.794
  C      -99.968     435.964    -290.575
  N     -102.337     439.940    -292.603
  C     -102.110     439.618    -291.281
  N     -102.604     440.470    -290.355
  N     -101.457     438.551    -290.895
  C     -101.004     437.800    -291.928
  C     -101.162     438.012    -293.279
  C     -101.901     439.185    -293.689
  O     -102.147     439.513    -294.845
  N     -100.568     437.010    -294.011
  C     -100.057     436.199    -293.105
  N     -100.304     436.624    -291.827
  O      -94.982     432.163    -290.071
  O      -94.133     434.242    -291.296
  H     -101.926     435.240    -288.869
  H      -93.303     433.739    -291.212
  H     -102.852     440.767    -292.845
  H      -99.506     435.291    -293.318
  H     -100.115     436.696    -289.776
  H     -100.945     434.162    -291.314
  H     -103.095     441.322    -290.580
  H     -100.082     432.811    -289.548
  H     -102.426     440.273    -289.379
  H      -97.841     434.439    -289.013
  H      -97.605     432.351    -290.261
  H      -98.490     433.026    -291.649
  P      -99.362     433.481    -286.924
  C      -98.965     435.212    -285.064
  O      -99.769     434.130    -285.510
  O      -97.895     433.279    -287.121
  O     -100.139     432.078    -286.905
  H      -99.505     431.368    -286.679
  H      -99.328     435.560    -284.119
  H      -99.009     436.007    -285.778
  H      -97.952     434.884    -284.958

 6  7  8  9  10  11  12  13  14  15  26  29  33  34 0
 6-311+G(2d,p)
 ****
 36  38  39  40  41 0
 6-311+G(2d,p)
 ****
 1  2  3  4  5  16  17  18  19  20  21  22  23  24  25 0
 3-21G
 ****
 27  28  30  31  32  35  37  42  43  44  45  46  47 0
 3-21G
 ****
 48  49 0
 3-21G
 ****


