%nproc=1
%NoSave
%Mem=1900MB
#P OB98/GEN NMR

erre ene a

0 1
  C      754.542       5.337     226.117
  O      754.927       5.595     227.469
  P      754.237       4.693     228.606
  C      752.636       6.385     229.740
  O      752.762       5.270     228.876
  C      751.273       6.392     230.456
  O      751.197       7.487     231.413
  C      750.088       6.557     229.500
  O      748.984       5.813     230.039
  C      749.763       8.038     229.590
  O      748.444       8.316     229.144
  C      750.033       8.279     231.080
  N      747.756      12.643     232.441
  C      747.276      11.399     232.218
  N      747.944      10.291     231.837
  C      749.258      10.553     231.724
  C      749.893      11.769     231.909
  C      749.085      12.851     232.281
  N      749.572      14.116     232.480
  N      751.250      11.648     231.661
  C      751.418      10.380     231.324
  N      750.251       9.681     231.376
  O      755.039       5.096     229.934
  O      754.312       3.228     228.351
  H      748.284       9.274     229.252
  H      755.627       4.370     230.196
  H      746.192      11.285     232.361
  H      752.364       9.940     231.028
  H      749.190       7.938     231.708
  H      750.466       8.606     228.974
  H      750.280       6.233     228.469
  H      751.168       5.462     231.014
  H      752.744       7.318     229.183
  H      748.923      14.855     232.721
  H      750.556      14.309     232.322
  H      753.460       6.372     230.472
  P      748.505       4.531     229.202
  C      747.035       5.935     227.580
  O      748.149       5.073     227.737
  O      747.073       4.191     229.830
  O      749.438       3.374     229.257
  H      746.874       3.244     229.706
  H      747.296       6.717     226.859
  H      746.735       6.395     228.521
  H      746.188       5.360     227.184
  H      755.069       6.000     225.463
  H      753.489       5.494     226.010
  H      754.779       4.324     225.866

 3  4  5  6  7  8  9  10  11  12  22  25  29  30  31  32 0
 6-311+G(2d,p)
 ****
 33  36  37 0
 6-311+G(2d,p)
 ****
 1  2  13  14  15  16  17  18  19  20  21  23  24  26 0
 3-21G
 ****
 27  28  34  35  38  39  40  41  42  43  44  45  46  47  48 0
 3-21G
 ****


