%nproc=1
%NoSave
%Mem=1900MB
#P OB98/GEN NMR

erre ene a

0 1
  C     -904.736    -256.131    -225.010
  O     -905.091    -256.723    -223.784
  P     -906.670    -256.990    -223.512
  C     -906.976    -255.602    -221.311
  O     -907.211    -255.697    -222.728
  C     -907.764    -254.433    -220.731
  O     -907.241    -253.183    -221.178
  C     -909.233    -254.424    -221.120
  O     -910.027    -255.313    -220.324
  C     -909.612    -252.970    -220.798
  O     -909.840    -252.814    -219.391
  C     -908.322    -252.223    -221.238
  N     -910.138    -248.362    -223.963
  C     -910.044    -248.513    -222.593
  N     -910.565    -247.521    -221.838
  N     -909.492    -249.538    -222.015
  C     -909.016    -250.465    -222.866
  C     -909.035    -250.421    -224.257
  C     -909.646    -249.278    -224.903
  O     -909.806    -249.118    -226.102
  N     -908.443    -251.538    -224.799
  C     -908.077    -252.253    -223.748
  N     -908.426    -251.670    -222.576
  O     -906.658    -258.126    -222.384
  O     -907.445    -257.387    -224.734
  H     -910.508    -253.507    -219.148
  H     -907.534    -258.542    -222.349
  H     -910.549    -247.552    -224.372
  H     -907.540    -253.193    -223.819
  H     -908.087    -251.410    -220.549
  H     -910.519    -252.646    -221.320
  H     -911.056    -246.725    -222.217
  H     -909.387    -254.612    -222.187
  H     -910.583    -247.634    -220.830
  H     -907.663    -254.478    -219.623
  H     -905.932    -255.469    -221.120
  H     -907.284    -256.551    -220.842
  P     -911.580    -255.409    -220.684
  C     -912.258    -254.421    -218.380
  O     -912.318    -254.299    -219.789
  O     -912.008    -256.789    -220.005
  O     -911.886    -255.399    -222.142
  H     -912.783    -257.194    -220.473
  H     -912.581    -253.468    -217.929
  H     -911.272    -254.678    -218.022
  H     -912.976    -255.195    -218.056
  H     -903.673    -256.014    -225.055
  H     -905.204    -255.172    -225.092
  H     -905.061    -256.756    -225.815

 3  4  5  6  7  8  9  10  11  12  23  26  30  31 0
 6-311+G(2d,p)
 ****
 33  35  36  37  38 0
 6-311+G(2d,p)
 ****
 1  2  13  14  15  16  17  18  19  20  21  22  24  25 0
 3-21G
 ****
 27  28  29  32  34  39  40  41  42  43  44  45  46  47  48  49 0
 3-21G
 ****


