%nproc=1
%NoSave
%Mem=1900MB
#P OB98/GEN NMR

erre ene a

0 1
  C      510.990     549.112     572.490
  O      511.241     547.721     572.420
  H      511.419     549.613     571.615
  H      509.910     549.281     572.495
  H      511.420     549.530     573.405
  P      512.778     547.266     572.365
  C      514.125     545.924     570.589
  O      513.014     546.766     570.856
  C      514.095     545.495     569.122
  O      513.052     544.501     568.920
  C      513.784     546.624     568.155
  O      514.925     547.412     567.848
  C      513.294     545.840     566.946
  O      514.424     545.289     566.249
  C      512.462     544.732     567.609
  N      507.969     545.243     565.208
  C      509.180     544.826     564.773
  N      510.329     544.699     565.473
  C      510.126     545.048     566.765
  C      508.953     545.476     567.348
  C      507.832     545.583     566.508
  N      506.604     546.034     566.939
  N      509.148     545.761     568.690
  C      510.416     545.475     568.907
  N      511.068     545.065     567.776
  O      512.798     545.899     573.202
  O      513.774     548.258     572.851
  H      514.072     544.690     565.555
  H      513.717     545.647     573.424
  H      509.243     544.555     563.721
  H      510.921     545.555     569.872
  H      512.517     543.783     567.047
  H      512.755     546.466     566.228
  H      512.956     547.254     568.522
  H      515.056     545.017     568.875
  H      514.062     545.040     571.233
  H      505.907     546.214     566.233
  H      506.526     546.427     567.866
  H      515.052     546.461     570.795
  P      514.724     548.656     566.851
  C      514.671     548.847     564.246
  O      514.427     548.023     565.392
  O      516.202     549.243     566.708
  O      513.747     549.678     567.322
  H      516.178     550.208     566.580
  H      514.432     548.301     563.357
  H      515.702     549.131     564.224
  H      514.061     549.724     564.301

 6  7  8  9  10  11  12  13  14  15  25  28  32  33  34  35 0
 6-311+G(2d,p)
 ****
 36  39  40 0
 6-311+G(2d,p)
 ****
 1  2  3  4  5  16  17  18  19  20  21  22  23  24 0
 3-21G
 ****
 26  27  29  30  31  37  38  41  42  43  44  45  46  47 0
 3-21G
 ****
 48 0
 3-21G
 ****


