%nproc=1
%NoSave
%Mem=1900MB
#P OB98/GEN NMR

erre ene a

0 1
  C      -77.479    -160.690      89.105
  O      -78.211    -159.737      89.850
  H      -77.829    -160.666      88.070
  H      -77.639    -161.694      89.509
  H      -76.415    -160.444      89.125
  P      -77.872    -159.638      91.415
  C      -80.389    -159.984      91.854
  O      -79.252    -159.162      92.091
  C      -81.676    -159.177      92.025
  O      -81.762    -158.733      93.403
  C      -81.740    -157.937      91.132
  O      -83.077    -157.762      90.667
  C      -81.374    -156.802      92.071
  O      -81.906    -155.551      91.644
  C      -81.934    -157.306      93.400
  N      -80.500    -152.881      95.495
  C      -81.293    -153.166      94.441
  N      -81.637    -154.380      93.958
  C      -81.109    -155.358      94.715
  C      -80.281    -155.222      95.815
  C      -79.968    -153.907      96.201
  N      -79.140    -153.608      97.258
  N      -79.907    -156.463      96.295
  C      -80.512    -157.332      95.508
  N      -81.236    -156.711      94.527
  O      -76.674    -158.823      91.769
  O      -77.799    -161.181      91.830
  H      -81.805    -155.488      90.671
  H      -78.531    -161.691      91.436
  H      -81.699    -152.310      93.909
  H      -80.447    -158.411      95.596
  H      -83.000    -157.081      93.520
  H      -80.282    -156.704      92.122
  H      -81.059    -157.998      90.282
  H      -82.531    -159.840      91.851
  H      -80.392    -160.832      92.549
  H      -78.981    -152.636      97.477
  H      -78.749    -154.359      97.808
  H      -80.317    -160.372      90.834
  P      -83.523    -158.508      89.320
  C      -83.537    -156.477      87.728
  O      -84.318    -157.463      88.396
  O      -84.177    -159.836      89.496
  O      -82.132    -158.661      88.536
  H      -82.123    -159.521      88.071
  H      -84.178    -155.846      87.149
  H      -82.832    -156.958      87.083
  H      -83.014    -155.886      88.451

 6  7  8  9  10  11  12  13  14  15  25  28  32  33  34  35 0
 6-311+G(2d,p)
 ****
 36  39  40 0
 6-311+G(2d,p)
 ****
 1  2  3  4  5  16  17  18  19  20  21  22  23  24 0
 3-21G
 ****
 26  27  29  30  31  37  38  41  42  43  44  45  46  47 0
 3-21G
 ****
 48 0
 3-21G
 ****


