%nproc=1
%NoSave
%Mem=1900MB
#P OB98/GEN NMR

erre ene a

0 1
  C      698.764      18.289     370.971
  O      699.399      17.161     371.536
  P      699.441      15.825     370.635
  C      701.303      14.107     369.995
  O      700.936      15.256     370.744
  C      702.487      13.408     370.674
  O      703.677      14.223     370.571
  C      702.284      13.136     372.161
  O      701.517      11.958     372.353
  C      703.722      13.014     372.649
  O      704.251      11.705     372.374
  C      704.439      14.081     371.800
  N      707.656      17.751     373.132
  C      707.911      16.489     372.624
  N      709.205      16.173     372.399
  N      706.975      15.606     372.364
  C      705.727      16.058     372.647
  C      705.355      17.279     373.166
  C      706.390      18.254     373.402
  O      706.219      19.416     373.755
  N      703.997      17.358     373.344
  C      703.549      16.196     372.908
  N      704.554      15.376     372.454
  O      699.342      16.391     369.143
  O      698.376      14.820     370.947
  H      704.089      11.483     371.437
  H      698.428      16.328     368.807
  H      708.421      18.388     373.294
  H      702.509      15.907     372.877
  H      705.451      13.775     371.522
  H      703.810      13.166     373.724
  H      709.981      16.791     372.596
  H      701.804      13.996     372.641
  H      709.407      15.251     372.031
  H      702.675      12.472     370.135
  H      701.595      14.412     368.986
  H      700.439      13.430     369.930
  P      701.252      11.487     373.866
  C      699.235      10.365     375.060
  O      699.677      11.197     374.005
  O      701.473      12.822     374.716
  O      702.146      10.382     374.328
  H      701.887      12.596     375.570
  H      698.227      10.676     375.348
  H      699.891      10.428     375.932
  H      699.201       9.329     374.709
  H      698.803      19.104     371.663
  H      697.743      18.053     370.755
  H      699.265      18.565     370.067

 3  4  5  6  7  8  9  10  11  12  23  26  30  31 0
 6-311+G(2d,p)
 ****
 33  35  36  37  38 0
 6-311+G(2d,p)
 ****
 1  2  13  14  15  16  17  18  19  20  21  22  24  25 0
 3-21G
 ****
 27  28  29  32  34  39  40  41  42  43  44  45  46  47  48  49 0
 3-21G
 ****


