%nproc=1
%NoSave
%Mem=1900MB
#P OB98/GEN NMR

erre ene a

0 1
  C      125.658      68.606    -316.179
  O      126.853      68.729    -316.933
  P      127.380      70.163    -317.407
  C      126.254      72.315    -318.402
  O      126.177      70.938    -318.113
  C      125.417      72.609    -319.654
  O      124.050      72.186    -319.451
  C      125.403      74.099    -319.984
  O      126.407      74.408    -320.935
  C      123.994      74.310    -320.503
  O      123.901      73.917    -321.885
  C      123.183      73.342    -319.610
  N      122.781      73.800    -318.268
  C      122.371      75.116    -318.085
  O      122.285      75.936    -318.993
  N      122.073      75.473    -316.792
  C      122.106      74.642    -315.708
  O      122.079      75.024    -314.544
  C      122.285      73.218    -316.008
  C      122.629      72.871    -317.248
  O      128.353      69.804    -318.625
  O      128.070      70.972    -316.358
  H      124.158      72.980    -321.934
  H      129.284      69.799    -318.333
  H      121.909      76.462    -316.628
  H      122.178      72.507    -315.198
  H      122.802      71.821    -317.482
  H      122.275      73.003    -320.122
  H      123.717      75.362    -320.468
  H      125.534      74.691    -319.067
  H      125.825      72.033    -320.496
  H      127.298      72.609    -318.562
  H      125.880      72.899    -317.553
  P      126.684      75.936    -321.325
  C      125.146      77.916    -321.851
  O      125.267      76.510    -321.810
  O      127.826      76.168    -322.261
  O      126.927      76.641    -319.905
  H      127.887      76.723    -319.733
  H      124.213      78.175    -322.361
  H      125.984      78.360    -322.397
  H      125.110      78.315    -320.833
  H      125.478      67.574    -315.962
  H      124.838      69.000    -316.743
  H      125.756      69.151    -315.264

 3  4  5  6  7  8  9  10  11  12  13  23  28  29  30  31  32 0
 6-311+G(2d,p)
 ****
 33  34 0
 6-311+G(2d,p)
 ****
 1  2  14  15  16  17  18  19  20  21  22  24  25  26  27 0
 3-21G
 ****
 35  36  37  38  39  40  41  42  43  44  45 0
 3-21G
 ****


