%nproc=1
%NoSave
%Mem=1900MB
#P OB98/GEN NMR

erre ene a

0 1
  C      579.142     104.213      64.431
  O      578.103     103.247      64.441
  P      577.190     102.979      63.144
  C      575.899     105.183      63.592
  O      575.812     103.785      63.426
  C      574.868     105.657      64.629
  O      575.106     107.067      64.909
  C      573.414     105.508      64.186
  O      572.642     105.177      65.357
  C      573.066     106.895      63.686
  O      571.658     107.149      63.685
  C      573.868     107.759      64.667
  N      574.118     109.106      64.157
  C      573.244     110.130      64.571
  O      572.298     109.891      65.311
  N      573.480     111.407      64.114
  C      574.438     111.636      63.265
  N      574.668     112.917      62.890
  C      575.303     110.560      62.716
  C      575.103     109.352      63.219
  O      577.012     101.559      62.775
  O      577.858     103.886      62.004
  H      571.299     106.862      64.536
  H      578.608     103.421      61.541
  H      576.060     110.790      61.986
  H      575.702     108.510      62.906
  H      573.354     107.825      65.633
  H      573.427     107.028      62.658
  H      573.268     104.722      63.428
  H      575.050     105.106      65.561
  H      574.171     113.638      63.415
  H      575.666     105.664      62.632
  H      575.555     113.199      62.506
  H      576.910     105.463      63.886
  P      572.244     103.640      65.603
  C      569.961     103.842      64.376
  O      570.643     103.529      65.572
  O      572.566     103.481      67.175
  O      573.017     102.631      64.809
  H      572.747     102.542      67.354
  H      568.887     103.712      64.539
  H      570.285     103.178      63.576
  H      570.145     104.889      64.094
  H      579.621     104.231      65.387
  H      578.730     105.178      64.220
  H      579.858     103.959      63.678

 3  4  5  6  7  8  9  10  11  12  13  23  27  28  29  30  32 0
 6-311+G(2d,p)
 ****
 34  35 0
 6-311+G(2d,p)
 ****
 1  2  14  15  16  17  18  19  20  21  22  24  25  26 0
 3-21G
 ****
 31  33  36  37  38  39  40  41  42  43  44  45  46 0
 3-21G
 ****


