%nproc=1
%NoSave
%Mem=1900MB
#P OB98/GEN NMR

erre ene a

0 1
  C      761.058     235.128    -156.560
  O      760.125     234.069    -156.427
  P      758.810     234.236    -155.523
  C      758.906     231.741    -154.897
  O      758.117     232.788    -155.452
  C      758.501     230.391    -155.509
  O      757.101     230.124    -155.167
  C      758.627     230.360    -157.041
  O      759.395     229.271    -157.557
  C      757.177     230.416    -157.503
  O      756.975     229.940    -158.823
  C      756.472     229.656    -156.375
  N      755.023     229.882    -156.374
  C      754.233     228.943    -157.031
  O      754.665     227.943    -157.592
  N      752.895     229.219    -157.067
  C      752.289     230.365    -156.643
  O      751.105     230.583    -156.802
  C      753.189     231.345    -155.991
  C      754.491     231.051    -155.857
  O      757.886     235.336    -155.923
  O      759.401     234.398    -154.038
  H      757.050     228.964    -158.799
  H      759.943     233.646    -153.735
  H      752.308     228.549    -157.545
  H      752.750     232.266    -155.651
  H      755.165     231.750    -155.388
  H      756.651     228.581    -156.443
  H      756.863     231.469    -157.488
  H      759.162     231.255    -157.410
  H      759.119     229.614    -155.044
  H      758.741     231.707    -153.813
  H      759.968     231.947    -155.064
  P      760.016     229.192    -159.029
  C      758.823     227.048    -159.876
  O      760.029     227.662    -159.482
  O      761.316     229.920    -159.208
  O      758.878     229.841    -159.957
  H      759.293     230.260    -160.729
  H      758.889     225.971    -159.668
  H      758.687     227.181    -160.952
  H      757.970     227.467    -159.347
  H      761.859     234.820    -157.200
  H      761.449     235.382    -155.597
  H      760.571     235.981    -156.984

 3  4  5  6  7  8  9  10  11  12  13  23  28  29  30  31  32 0
 6-311+G(2d,p)
 ****
 33  34 0
 6-311+G(2d,p)
 ****
 1  2  14  15  16  17  18  19  20  21  22  24  25  26  27 0
 3-21G
 ****
 35  36  37  38  39  40  41  42  43  44  45 0
 3-21G
 ****


