%nproc=1
%NoSave
%Mem=1900MB
#P OB98/GEN NMR

erre ene a

0 1
  C      -39.522     420.146     -59.379
  O      -40.069     421.392     -59.756
  H      -39.892     419.380     -60.067
  H      -39.846     419.893     -58.365
  H      -38.432     420.162     -59.424
  P      -39.452     422.729     -59.128
  C      -39.199     425.175     -59.910
  O      -39.885     423.943     -60.080
  C      -39.815     426.269     -60.791
  O      -39.569     425.944     -62.185
  C      -41.336     426.346     -60.617
  O      -41.846     427.651     -60.874
  C      -41.847     425.391     -61.691
  O      -43.194     425.658     -62.077
  C      -40.824     425.620     -62.802
  N      -40.668     423.908     -67.604
  C      -41.057     425.145     -67.130
  N      -41.453     426.048     -68.062
  N      -41.077     425.463     -65.864
  C      -40.726     424.445     -65.043
  C      -40.347     423.168     -65.392
  C      -40.293     422.836     -66.801
  O      -39.981     421.751     -67.271
  N      -40.071     422.408     -64.279
  C      -40.289     423.216     -63.265
  N      -40.665     424.473     -63.676
  O      -37.882     422.596     -59.430
  O      -39.715     422.937     -57.667
  H      -43.213     426.545     -62.480
  H      -37.371     423.149     -58.811
  H      -40.645     423.724     -68.593
  H      -40.177     422.954     -62.225
  H      -41.122     426.476     -63.428
  H      -41.818     424.374     -61.287
  H      -41.638     425.778     -69.016
  H      -41.664     426.024     -59.627
  H      -42.024     426.830     -67.723
  H      -39.326     427.231     -60.598
  H      -38.156     425.003     -60.182
  H      -39.214     425.476     -58.861
  P      -42.064     428.647     -59.637
  C      -41.844     431.272     -59.389
  O      -42.191     430.147     -60.167
  O      -40.663     428.621     -58.876
  O      -43.204     428.268     -58.735
  H      -40.765     428.238     -57.985
  H      -42.014     432.164     -59.956
  H      -40.811     431.213     -59.118
  H      -42.444     431.292     -58.503

 6  7  8  9  10  11  12  13  14  15  26  29  33  34 0
 6-311+G(2d,p)
 ****
 36  38  39  40  41 0
 6-311+G(2d,p)
 ****
 1  2  3  4  5  16  17  18  19  20  21  22  23  24  25 0
 3-21G
 ****
 27  28  30  31  32  35  37  42  43  44  45  46  47 0
 3-21G
 ****
 48  49 0
 3-21G
 ****


