%nproc=1
%NoSave
%Mem=1900MB
#P OB98/GEN NMR

erre ene a

0 1
  C      197.801     135.718     136.030
  O      197.139     136.906     136.400
  H      197.370     134.889     136.599
  H      198.866     135.782     136.273
  H      197.670     135.519     134.964
  P      197.601     138.300     135.748
  C      197.537     139.243     138.136
  O      197.122     139.434     136.790
  C      196.474     139.744     139.114
  O      195.640     138.630     139.538
  C      197.053     140.395     140.380
  O      196.381     141.629     140.641
  C      196.727     139.395     141.479
  O      196.663     139.988     142.772
  C      195.413     138.805     140.949
  N      195.067     137.557     141.617
  C      194.483     137.676     142.882
  O      194.284     138.788     143.370
  N      194.190     136.534     143.586
  C      194.501     135.376     143.089
  N      194.208     134.287     143.849
  C      195.141     135.206     141.768
  C      195.393     136.328     141.090
  O      197.156     138.507     134.340
  O      199.192     138.322     135.914
  H      197.550     140.352     142.992
  H      199.575     138.942     135.250
  H      195.383     134.220     141.402
  H      195.862     136.304     140.113
  H      194.585     139.514     141.079
  H      197.502     138.617     141.502
  H      198.125     140.582     140.315
  H      195.810     140.438     138.581
  H      193.776     134.452     144.751
  H      198.481     139.775     138.291
  H      194.425     133.341     143.580
  H      197.695     138.172     138.300
  P      197.270     142.796     141.297
  C      195.976     143.160     143.517
  O      196.314     143.677     142.237
  O      197.589     143.757     140.058
  O      198.520     142.298     141.943
  H      198.534     143.694     139.824
  H      195.338     143.853     144.024
  H      196.868     143.012     144.089
  H      195.467     142.226     143.401

 6  7  8  9  10  11  12  13  14  15  16  26  30  31  32  33  35 0
 6-311+G(2d,p)
 ****
 37  38 0
 6-311+G(2d,p)
 ****
 1  2  3  4  5  17  18  19  20  21  22  23  24  25 0
 3-21G
 ****
 27  28  29  34  36  39  40  41  42  43  44  45  46 0
 3-21G
 ****


