%nproc=1
%NoSave
%Mem=1900MB
#P OB98/GEN NMR

erre ene a

0 1
  C     -611.267       5.788    -496.085
  O     -612.333       6.487    -495.474
  H     -611.441       5.760    -497.166
  H     -611.225       4.761    -495.714
  H     -610.312       6.290    -495.898
  P     -612.243       6.811    -493.910
  C     -612.490       9.346    -494.314
  O     -613.021       8.192    -493.675
  C     -613.196      10.599    -493.804
  O     -614.526      10.675    -494.363
  C     -613.392      10.622    -492.293
  O     -612.183      10.924    -491.618
  C     -614.484      11.669    -492.161
  O     -613.938      12.990    -492.201
  C     -615.348      11.392    -493.413
  N     -616.555      10.641    -493.087
  C     -617.745      11.367    -493.070
  O     -617.812      12.566    -493.312
  N     -618.863      10.665    -492.688
  C     -618.876       9.387    -492.209
  O     -619.848       8.888    -491.656
  C     -617.610       8.651    -492.315
  C     -616.516       9.306    -492.730
  O     -610.871       6.750    -493.316
  O     -613.217       5.732    -493.242
  H     -612.683       5.013    -492.853
  H     -613.274      13.028    -491.485
  H     -619.724      11.197    -492.632
  H     -617.595       7.617    -492.011
  H     -615.565       8.795    -492.784
  H     -615.641      12.338    -493.891
  H     -615.030      11.562    -491.221
  H     -613.782       9.653    -491.957
  H     -612.630      11.479    -494.139
  H     -612.648       9.255    -495.395
  H     -611.413       9.399    -494.121
  P     -611.752      10.088    -490.323
  C     -609.323      10.905    -490.133
  O     -610.619      10.912    -489.543
  O     -611.415       8.653    -490.572
  O     -613.011      10.207    -489.343
  H     -613.259       9.311    -489.029
  H     -608.654      11.483    -489.530
  H     -609.375      11.329    -491.114
  H     -608.966       9.898    -490.198

 6  7  8  9  10  11  12  13  14  15  16  27  31  32  33  34  35 0
 6-311+G(2d,p)
 ****
 36  37 0
 6-311+G(2d,p)
 ****
 1  2  3  4  5  17  18  19  20  21  22  23  24  25 0
 3-21G
 ****
 26  28  29  30  38  39  40  41  42  43  44  45 0
 3-21G
 ****


