%nproc=1
%NoSave
%Mem=1900MB
#P OB98/GEN NMR

erre ene a

0 1
  C       47.576     -51.386     -19.222
  O       47.345     -52.723     -19.625
  P       48.608     -53.713     -19.658
  C       50.900     -53.434     -20.854
  O       49.488     -53.257     -20.917
  C       51.424     -54.011     -22.165
  O       51.217     -55.434     -22.196
  C       50.725     -53.469     -23.401
  O       51.200     -52.175     -23.715
  C       51.082     -54.529     -24.437
  O       52.351     -54.247     -25.048
  C       51.152     -55.819     -23.587
  N       50.036     -56.715     -23.840
  C       50.362     -57.944     -24.426
  O       51.532     -58.200     -24.714
  N       49.350     -58.829     -24.707
  C       48.124     -58.511     -24.429
  N       47.163     -59.429     -24.724
  C       47.737     -57.219     -23.830
  C       48.733     -56.374     -23.569
  O       47.971     -55.101     -20.128
  O       49.340     -53.833     -18.362
  H       52.532     -55.005     -25.641
  H       48.502     -55.854     -19.807
  H       46.699     -57.004     -23.619
  H       48.537     -55.403     -23.130
  H       52.080     -56.365     -23.800
  H       50.344     -54.574     -25.243
  H       49.638     -53.449     -23.251
  H       52.504     -53.819     -22.218
  H       47.458     -60.302     -25.142
  H       51.142     -54.126     -20.042
  H       46.182     -59.286     -24.528
  H       51.368     -52.468     -20.639
  P       50.200     -51.177     -24.468
  C       48.986     -51.252     -26.726
  O       50.021     -51.800     -25.933
  O       51.140     -49.910     -24.755
  O       48.949     -50.796     -23.750
  H       50.611     -49.182     -25.129
  H       49.072     -51.648     -27.739
  H       49.068     -50.162     -26.764
  H       48.012     -51.537     -26.316
  H       46.655     -50.842     -19.246
  H       48.278     -50.929     -19.888
  H       47.970     -51.376     -18.227

 3  4  5  6  7  8  9  10  11  12  13  21  23  27  28  29  30  32 0
 6-311+G(2d,p)
 ****
 34  35 0
 6-311+G(2d,p)
 ****
 1  2  14  15  16  17  18  19  20  22  24  25  26 0
 3-21G
 ****
 31  33  36  37  38  39  40  41  42  43  44  45  46 0
 3-21G
 ****


