%nproc=1
%NoSave
%Mem=1900MB
#P OB98/GEN NMR

erre ene a

0 1
  C     -516.305     376.157     352.749
  O     -517.245     375.464     353.535
  P     -518.323     374.499     352.829
  C     -518.162     372.683     354.645
  O     -519.008     373.601     353.982
  C     -518.966     371.476     355.132
  O     -519.845     370.999     354.095
  C     -518.104     370.272     355.525
  O     -517.508     370.480     356.789
  C     -519.136     369.149     355.487
  O     -519.906     369.123     356.707
  C     -520.020     369.579     354.305
  N     -521.056     365.389     351.571
  C     -521.387     365.755     352.842
  N     -521.045     366.871     353.508
  C     -520.244     367.648     352.746
  C     -519.788     367.375     351.465
  C     -520.246     366.199     350.852
  N     -519.950     365.856     349.559
  N     -518.941     368.404     351.043
  C     -518.899     369.244     352.045
  N     -519.710     368.869     353.071
  O     -517.812     373.736     351.648
  O     -519.501     375.494     352.399
  H     -520.497     368.357     356.645
  H     -519.608     375.464     351.426
  H     -522.036     365.063     353.365
  H     -518.307     370.159     352.070
  H     -521.091     369.414     354.520
  H     -518.679     368.172     355.359
  H     -517.341     370.098     354.756
  H     -519.581     371.799     355.982
  H     -517.696     373.174     355.494
  H     -520.462     365.061     349.179
  H     -519.623     366.573     348.927
  H     -517.360     372.343     353.945
  P     -515.893     370.556     356.903
  C     -516.085     371.630     359.235
  O     -515.543     370.571     358.475
  O     -515.243     371.636     356.085
  O     -515.426     369.096     356.431
  H     -514.557     369.174     356.000
  H     -515.492     372.540     359.056
  H     -516.032     371.370     360.278
  H     -517.135     371.822     358.946
  H     -515.674     376.745     353.383
  H     -516.818     376.798     352.062
  H     -515.709     375.455     352.205

 3  4  5  6  7  8  9  10  11  12  22  25  29  30  31  32 0
 6-311+G(2d,p)
 ****
 33  36  37 0
 6-311+G(2d,p)
 ****
 1  2  13  14  15  16  17  18  19  20  21  23  24  26 0
 3-21G
 ****
 27  28  34  35  38  39  40  41  42  43  44  45  46  47  48 0
 3-21G
 ****


