%nproc=1
%NoSave
%Mem=1900MB
#P OB98/GEN NMR

erre ene a

0 1
  C      580.417     616.224      53.780
  O      580.284     616.403      55.187
  P      580.339     617.916      55.763
  C      580.524     616.758      58.092
  O      581.002     617.790      57.220
  C      581.445     616.602      59.296
  O      582.693     616.026      58.904
  C      581.795     617.917      59.997
  O      580.772     618.335      60.888
  C      583.034     617.504      60.774
  O      582.658     616.776      61.964
  C      583.734     616.550      59.786
  N      588.741     616.735      58.789
  C      588.030     616.012      59.685
  N      586.690     616.040      59.896
  C      586.092     616.926      59.086
  C      586.693     617.753      58.150
  C      588.093     617.622      57.989
  N      588.817     618.330      57.060
  N      585.763     618.538      57.503
  C      584.610     618.177      58.045
  N      584.763     617.200      58.996
  O      578.808     618.235      56.075
  O      580.951     618.909      54.845
  H      583.486     616.434      62.347
  H      578.658     619.211      56.081
  H      588.591     615.343      60.321
  H      583.639     618.599      57.782
  H      584.191     615.690      60.281
  H      583.642     618.349      61.093
  H      582.059     618.693      59.261
  H      580.949     615.905      60.001
  H      580.489     615.801      57.551
  H      589.767     618.050      56.888
  H      588.308     618.836      56.342
  H      579.505     617.005      58.412
  P      581.206     619.361      62.052
  C      579.211     618.634      63.543
  O      580.624     618.750      63.403
  O      580.281     620.647      61.773
  O      582.664     619.695      62.052
  H      580.711     621.459      62.113
  H      578.994     617.923      64.361
  H      578.755     618.244      62.632
  H      578.782     619.587      63.793
  H      580.362     615.181      53.546
  H      581.361     616.612      53.459
  H      579.628     616.744      53.278

 3  4  5  6  7  8  9  10  11  12  22  25  29  30  31  32 0
 6-311+G(2d,p)
 ****
 33  36  37 0
 6-311+G(2d,p)
 ****
 1  2  13  14  15  16  17  18  19  20  21  23  24  26 0
 3-21G
 ****
 27  28  34  35  38  39  40  41  42  43  44  45  46  47  48 0
 3-21G
 ****


