%nproc=1
%NoSave
%Mem=1900MB
#P OB98/GEN NMR

erre ene a

0 1
  C      -35.824    -456.134     527.333
  O      -34.471    -455.726     527.274
  H      -36.024    -456.598     528.301
  H      -36.462    -455.254     527.230
  H      -36.055    -456.835     526.526
  P      -33.363    -456.873     527.103
  C      -33.733    -456.497     524.561
  O      -33.521    -457.436     525.607
  C      -33.002    -456.938     523.290
  O      -31.569    -456.868     523.543
  C      -33.331    -458.363     522.832
  O      -33.393    -458.376     521.401
  C      -32.120    -459.164     523.279
  O      -31.916    -460.340     522.500
  C      -31.008    -458.130     523.129
  N      -26.034    -459.187     522.947
  C      -26.869    -458.613     522.052
  N      -28.177    -458.320     522.203
  C      -28.590    -458.612     523.447
  C      -27.855    -459.195     524.469
  C      -26.516    -459.505     524.172
  N      -25.674    -460.151     525.048
  N      -28.654    -459.392     525.580
  C      -29.847    -458.965     525.230
  N      -29.861    -458.486     523.948
  O      -33.952    -458.057     528.015
  O      -31.977    -456.498     527.507
  H      -32.709    -460.909     522.580
  H      -33.648    -457.942     528.934
  H      -26.436    -458.367     521.086
  H      -30.737    -459.006     525.842
  H      -30.656    -458.031     522.094
  H      -32.246    -459.462     524.327
  H      -34.269    -458.760     523.245
  H      -33.221    -456.213     522.498
  H      -33.351    -455.524     524.875
  H      -24.767    -460.426     524.711
  H      -26.053    -460.491     525.923
  H      -34.807    -456.411     524.367
  P      -34.744    -458.904     520.724
  C      -35.428    -456.468     520.104
  O      -35.808    -457.706     520.696
  O      -35.343    -459.900     521.830
  O      -34.540    -459.597     519.416
  H      -35.824    -460.634     521.398
  H      -36.244    -455.778     520.165
  H      -35.172    -456.627     519.077
  H      -34.583    -456.068     520.625

 6  7  8  9  10  11  12  13  14  15  25  28  32  33  34  35 0
 6-311+G(2d,p)
 ****
 36  39  40 0
 6-311+G(2d,p)
 ****
 1  2  3  4  5  16  17  18  19  20  21  22  23  24 0
 3-21G
 ****
 26  27  29  30  31  37  38  41  42  43  44  45  46  47 0
 3-21G
 ****
 48 0
 3-21G
 ****


