%nproc=1
%NoSave
%Mem=1900MB
#P OB98/GEN NMR

erre ene a

0 1
  C      105.023      87.790     391.879
  O      103.732      88.061     392.384
  H      104.948      86.988     391.141
  H      105.675      87.458     392.689
  H      105.452      88.672     391.395
  P      103.507      89.382     393.264
  C      102.391      90.678     391.333
  O      103.487      90.614     392.236
  C      101.671      92.028     391.448
  O      102.571      93.081     390.999
  C      100.394      92.127     390.596
  O       99.490      93.005     391.280
  C      100.914      92.784     389.333
  O       99.867      93.335     388.567
  C      101.916      93.779     389.923
  N      102.866      94.267     388.926
  C      102.807      95.620     388.619
  O      101.982      96.388     389.118
  N      103.695      96.067     387.680
  C      104.579      95.292     386.988
  O      105.333      95.739     386.133
  C      104.572      93.857     387.319
  C      103.733      93.416     388.263
  O      104.427      89.553     394.425
  O      101.975      89.291     393.725
  H       99.161      92.666     388.424
  H      101.860      89.727     394.591
  H      103.670      97.049     387.455
  H      105.254      93.214     386.786
  H      103.702      92.366     388.532
  H      101.397      94.647     390.348
  H      101.431      92.052     388.703
  H       99.922      91.159     390.413
  H      101.455      92.221     392.504
  H      101.700      89.868     391.582
  H      102.754      90.537     390.309
  P       97.909      92.989     391.005
  C       97.107      91.795     393.149
  O       97.276      91.704     391.733
  O       97.535      93.122     389.565
  O       97.335      94.217     391.857
  H       96.521      94.558     391.439
  H       96.680      90.885     393.516
  H       96.456      92.612     393.379
  H       98.058      91.956     393.612

 6  7  8  9  10  11  12  13  14  15  16  26  31  32  33  34  35 0
 6-311+G(2d,p)
 ****
 36  37 0
 6-311+G(2d,p)
 ****
 1  2  3  4  5  17  18  19  20  21  22  23  24  25 0
 3-21G
 ****
 27  28  29  30  38  39  40  41  42  43  44  45 0
 3-21G
 ****


