%nproc=1
%NoSave
%Mem=1900MB
#P OB98/GEN NMR

erre ene a

0 1
  C      -65.993    -266.359      53.724
  O      -64.634    -266.447      54.118
  P      -63.875    -267.862      54.116
  C      -63.053    -267.663      56.543
  O      -62.675    -267.734      55.175
  C      -61.836    -267.837      57.455
  O      -62.274    -267.807      58.834
  C      -61.099    -269.148      57.233
  O      -59.693    -268.929      57.406
  C      -61.578    -270.047      58.364
  O      -60.608    -271.056      58.679
  C      -61.834    -269.025      59.474
  N      -62.771    -270.962      64.134
  C      -61.616    -270.613      63.526
  N      -61.439    -270.127      62.276
  C      -62.622    -269.962      61.664
  C      -63.882    -270.273      62.159
  C      -63.935    -270.800      63.458
  N      -65.111    -271.147      64.088
  N      -64.859    -269.994      61.224
  C      -64.207    -269.507      60.190
  N      -62.852    -269.456      60.414
  O      -63.465    -268.358      52.774
  O      -64.891    -268.865      54.837
  H      -61.018    -271.655      59.343
  H      -64.863    -269.743      54.406
  H      -60.716    -270.740      64.120
  H      -64.656    -269.189      59.265
  H      -60.915    -268.796      60.036
  H      -62.504    -270.552      58.059
  H      -61.286    -269.587      56.246
  H      -61.162    -266.978      57.306
  H      -63.772    -268.461      56.748
  H      -65.063    -271.402      65.061
  H      -65.983    -270.864      63.652
  H      -63.543    -266.698      56.737
  P      -58.736    -269.554      56.269
  C      -57.369    -270.740      58.145
  O      -57.365    -269.874      57.027
  O      -58.659    -268.678      55.059
  O      -59.432    -270.978      56.025
  H      -59.937    -271.270      56.816
  H      -56.348    -270.802      58.545
  H      -57.689    -271.739      57.848
  H      -58.034    -270.351      58.925
  H      -66.319    -265.342      53.791
  H      -66.591    -266.969      54.368
  H      -66.095    -266.700      52.715

 3  4  5  6  7  8  9  10  11  12  22  25  29  30  31  32 0
 6-311+G(2d,p)
 ****
 33  36  37 0
 6-311+G(2d,p)
 ****
 1  2  13  14  15  16  17  18  19  20  21  23  24  26 0
 3-21G
 ****
 27  28  34  35  38  39  40  41  42  43  44  45  46  47  48 0
 3-21G
 ****


