%nproc=1
%NoSave
%Mem=1900MB
#P OB98/GEN NMR

erre ene a

0 1
  C      -26.748     579.749    -361.495
  O      -26.409     581.129    -361.373
  P      -26.824     582.068    -362.605
  C      -28.204     583.610    -361.041
  O      -28.185     582.829    -362.222
  C      -29.089     584.853    -361.227
  O      -28.507     585.806    -362.145
  C      -30.471     584.523    -361.765
  O      -31.305     584.055    -360.726
  C      -30.909     585.888    -362.316
  O      -31.472     586.713    -361.279
  C      -29.589     586.474    -362.833
  N      -30.635     588.554    -367.341
  C      -31.146     588.846    -366.092
  N      -32.039     589.868    -366.026
  N      -30.803     588.213    -364.998
  C      -29.908     587.230    -365.213
  C      -29.303     586.863    -366.404
  C      -29.690     587.566    -367.605
  O      -29.251     587.358    -368.727
  N      -28.386     585.853    -366.208
  C      -28.533     585.531    -364.929
  N      -29.379     586.381    -364.275
  O      -27.262     581.018    -363.740
  O      -25.710     582.963    -363.076
  H      -30.800     586.848    -360.576
  H      -26.595     581.027    -364.457
  H      -30.938     589.071    -368.156
  H      -28.013     584.722    -364.434
  H      -29.513     587.549    -362.590
  H      -31.690     585.774    -363.080
  H      -32.338     590.394    -366.834
  H      -30.397     583.796    -362.583
  H      -32.413     590.098    -365.117
  H      -29.178     585.340    -360.242
  H      -27.196     583.915    -360.783
  H      -28.569     582.992    -360.211
  P      -32.466     583.009    -361.109
  C      -31.923     581.842    -358.853
  O      -32.238     581.700    -360.218
  O      -32.067     582.550    -362.592
  O      -33.847     583.573    -361.065
  H      -32.863     582.533    -363.151
  H      -32.300     580.980    -358.308
  H      -32.359     582.753    -358.427
  H      -30.829     581.880    -358.735
  H      -26.425     579.224    -360.621
  H      -26.265     579.338    -362.357
  H      -27.808     579.650    -361.599

 3  4  5  6  7  8  9  10  11  12  23  26  30  31 0
 6-311+G(2d,p)
 ****
 33  35  36  37  38 0
 6-311+G(2d,p)
 ****
 1  2  13  14  15  16  17  18  19  20  21  22  24  25 0
 3-21G
 ****
 27  28  29  32  34  39  40  41  42  43  44  45  46  47  48  49 0
 3-21G
 ****


