%nproc=1
%NoSave
%Mem=1900MB
#P OB98/GEN NMR

erre ene a

0 1
  C      152.378    -280.851     148.207
  O      151.577    -282.030     148.391
  P      151.833    -282.957     149.685
  C      149.388    -283.620     150.310
  O      150.655    -284.047     149.837
  C      148.274    -284.592     149.863
  O      147.984    -284.400     148.453
  C      148.612    -286.078     150.050
  O      147.387    -286.762     150.346
  C      149.115    -286.481     148.675
  O      149.080    -287.882     148.444
  C      148.155    -285.669     147.792
  N      148.608    -285.492     146.410
  C      148.231    -286.452     145.473
  O      147.585    -287.468     145.732
  N      148.646    -286.218     144.180
  C      149.422    -285.168     143.765
  O      149.786    -285.036     142.600
  C      149.819    -284.208     144.798
  C      149.396    -284.410     146.055
  O      151.517    -281.944     150.888
  O      153.216    -283.505     149.817
  H      148.163    -288.176     148.611
  H      152.218    -282.013     151.565
  H      148.369    -286.893     143.482
  H      150.424    -283.366     144.507
  H      149.665    -283.710     146.836
  H      147.171    -286.152     147.785
  H      150.153    -286.154     148.555
  H      149.344    -286.252     150.843
  H      147.358    -284.332     150.413
  H      149.169    -282.624     149.927
  H      149.416    -283.570     151.408
  P      147.286    -287.606     151.711
  C      144.973    -286.577     152.395
  O      145.731    -287.729     152.079
  O      147.822    -286.516     152.765
  O      148.077    -288.876     151.714
  H      147.431    -285.634     152.624
  H      145.227    -285.734     151.743
  H      145.156    -286.294     153.432
  H      143.912    -286.814     152.272
  H      152.081    -280.355     147.307
  H      153.409    -281.128     148.138
  H      152.240    -280.193     149.039

 3  4  5  6  7  8  9  10  11  12  13  23  28  29  30  31  32 0
 6-311+G(2d,p)
 ****
 33  34 0
 6-311+G(2d,p)
 ****
 1  2  14  15  16  17  18  19  20  21  22  24  25  26 0
 3-21G
 ****
 27  35  36  37  38  39  40  41  42  43  44  45 0
 3-21G
 ****


