%nproc=1
%NoSave
%Mem=1900MB
#P OB98/GEN NMR

erre ene a

0 1
  C     -135.906     327.677    -702.833
  O     -136.912     328.067    -703.768
  P     -137.611     329.497    -703.574
  C     -137.122     330.623    -705.923
  O     -138.043     330.084    -704.995
  C     -137.621     330.334    -707.353
  O     -137.359     328.959    -707.709
  C     -139.127     330.569    -707.528
  O     -139.419     331.916    -707.829
  C     -139.459     329.597    -708.649
  O     -139.055     330.147    -709.918
  C     -138.567     328.381    -708.278
  N     -139.119     327.396    -707.318
  C     -139.373     326.087    -707.736
  O     -139.185     325.682    -708.877
  N     -139.860     325.242    -706.770
  C     -139.949     325.493    -705.438
  O     -140.334     324.676    -704.608
  C     -139.519     326.833    -705.030
  C     -139.146     327.716    -705.964
  O     -136.407     330.450    -703.120
  O     -138.741     329.510    -702.587
  H     -139.109     329.430    -710.572
  H     -136.556     330.775    -702.207
  H     -140.116     324.318    -707.073
  H     -139.527     327.068    -703.966
  H     -138.826     328.712    -705.666
  H     -138.280     327.825    -709.174
  H     -140.532     329.430    -708.718
  H     -139.665     330.243    -706.630
  H     -137.064     330.977    -708.052
  H     -136.125     330.191    -705.781
  H     -137.029     331.700    -705.765
  P     -140.941     332.426    -707.822
  C     -140.872     334.157    -705.924
  O     -140.883     333.951    -707.333
  O     -141.921     331.550    -707.107
  O     -141.297     332.572    -709.382
  H     -141.761     331.766    -709.710
  H     -140.676     335.217    -705.727
  H     -140.092     333.556    -705.452
  H     -141.842     333.900    -705.502
  H     -135.536     326.707    -703.091
  H     -136.325     327.649    -701.849
  H     -135.103     328.383    -702.858

 3  4  5  6  7  8  9  10  11  12  13  23  28  29  30  31  32 0
 6-311+G(2d,p)
 ****
 33  34 0
 6-311+G(2d,p)
 ****
 1  2  14  15  16  17  18  19  20  21  22  24  25  26  27 0
 3-21G
 ****
 35  36  37  38  39  40  41  42  43  44  45 0
 3-21G
 ****


