%nproc=1
%NoSave
%Mem=1900MB
#P OB98/GEN NMR

erre ene a

0 1
  C     -726.803    -671.652    1451.896
  O     -727.092    -673.034    1451.887
  H     -726.031    -671.448    1451.156
  H     -726.452    -671.330    1452.874
  H     -727.701    -671.085    1451.617
  P     -728.158    -673.614    1452.940
  C     -726.247    -674.620    1454.375
  O     -727.454    -674.867    1453.668
  C     -725.179    -675.607    1453.939
  O     -725.250    -676.761    1454.811
  C     -725.348    -676.114    1452.498
  O     -724.198    -675.927    1451.677
  C     -725.907    -677.504    1452.667
  O     -725.655    -678.382    1451.586
  C     -725.305    -677.940    1454.003
  N     -726.093    -678.988    1454.686
  C     -725.524    -680.257    1454.794
  O     -724.403    -680.564    1454.391
  N     -726.281    -681.231    1455.437
  C     -727.526    -681.007    1455.930
  O     -728.174    -681.911    1456.492
  C     -728.102    -679.678    1455.767
  C     -727.372    -678.736    1455.151
  O     -729.509    -673.884    1452.369
  O     -728.225    -672.511    1454.088
  H     -726.133    -679.228    1451.770
  H     -729.035    -671.987    1454.005
  H     -725.850    -682.109    1455.527
  H     -729.104    -679.507    1456.149
  H     -727.750    -677.738    1455.021
  H     -724.299    -678.339    1453.862
  H     -727.008    -677.449    1452.757
  H     -726.114    -675.474    1451.969
  H     -724.191    -675.160    1454.068
  H     -726.461    -674.720    1455.437
  H     -725.918    -673.584    1454.172
  P     -723.930    -674.695    1450.705
  C     -723.519    -675.867    1448.359
  O     -723.001    -675.182    1449.495
  O     -723.562    -673.419    1451.357
  O     -725.356    -674.478    1449.957
  H     -725.417    -673.518    1449.780
  H     -722.720    -676.093    1447.684
  H     -724.238    -675.247    1447.866
  H     -723.988    -676.776    1448.674

 6  7  8  9  10  11  12  13  14  15  16  26  31  32  33  34  35 0
 6-311+G(2d,p)
 ****
 36  37 0
 6-311+G(2d,p)
 ****
 1  2  3  4  5  17  18  19  20  21  22  23  24  25 0
 3-21G
 ****
 27  28  29  30  38  39  40  41  42  43  44  45 0
 3-21G
 ****


