%nproc=1
%NoSave
%Mem=1900MB
#P OB98/GEN NMR

erre ene a

0 1
  C      569.737     316.955    -230.958
  O      569.933     317.449    -232.267
  H      569.037     317.611    -230.438
  H      570.686     316.957    -230.414
  H      569.324     315.944    -230.988
  P      570.871     316.578    -233.242
  C      569.380     314.574    -233.939
  O      569.886     315.853    -234.289
  C      568.124     314.246    -234.757
  O      567.033     315.106    -234.293
  C      568.274     314.461    -236.265
  O      567.499     313.462    -236.939
  C      567.598     315.812    -236.487
  O      567.184     316.004    -237.841
  C      566.458     315.712    -235.475
  N      562.558     318.726    -236.523
  C      562.841     317.438    -236.946
  N      561.946     316.863    -237.776
  N      563.912     316.773    -236.591
  C      564.696     317.455    -235.724
  C      564.537     318.738    -235.232
  C      563.371     319.468    -235.667
  O      563.072     320.621    -235.338
  N      565.581     319.080    -234.406
  C      566.367     318.014    -234.394
  N      565.873     317.006    -235.178
  O      571.352     315.383    -232.284
  O      572.020     317.312    -233.848
  H      566.627     315.235    -238.090
  H      572.209     315.604    -231.875
  H      561.731     319.202    -236.840
  H      567.293     317.929    -233.844
  H      565.643     315.066    -235.827
  H      568.287     316.623    -236.223
  H      561.081     317.296    -238.065
  H      569.309     314.434    -236.632
  H      562.111     315.907    -238.063
  H      567.821     313.219    -234.531
  H      569.131     314.563    -232.873
  H      570.151     313.818    -234.132
  P      568.112     312.787    -238.259
  C      567.124     310.380    -238.334
  O      567.051     311.721    -238.813
  O      569.276     311.866    -237.669
  O      568.628     313.768    -239.264
  H      569.986     311.752    -238.338
  H      566.355     309.795    -238.794
  H      566.991     310.373    -237.272
  H      568.080     309.966    -238.577

 6  7  8  9  10  11  12  13  14  15  26  29  33  34 0
 6-311+G(2d,p)
 ****
 36  38  39  40  41 0
 6-311+G(2d,p)
 ****
 1  2  3  4  5  16  17  18  19  20  21  22  23  24  25 0
 3-21G
 ****
 27  28  30  31  32  35  37  42  43  44  45  46  47 0
 3-21G
 ****
 48  49 0
 3-21G
 ****


