%nproc=1
%NoSave
%Mem=1900MB
#P OB98/GEN NMR

erre ene a

0 1
  C     -104.644    -122.734     469.433
  O     -104.605    -121.353     469.143
  P     -105.925    -120.452     469.282
  C     -106.718    -121.225     466.953
  O     -107.022    -121.157     468.345
  C     -107.981    -121.035     466.112
  O     -108.912    -122.111     466.344
  C     -108.744    -119.752     466.415
  O     -108.104    -118.640     465.822
  C     -110.114    -120.082     465.835
  O     -110.146    -119.854     464.416
  C     -110.243    -121.588     466.148
  N     -111.100    -121.844     467.299
  C     -112.478    -121.747     467.068
  O     -112.903    -121.429     465.957
  N     -113.337    -121.963     468.119
  C     -112.863    -122.230     469.295
  N     -113.764    -122.423     470.295
  C     -111.417    -122.310     469.587
  C     -110.602    -122.106     468.553
  O     -105.728    -118.992     469.055
  O     -106.444    -120.800     470.760
  H     -110.992    -120.231     464.101
  H     -105.883    -120.370     471.450
  H     -111.067    -122.525     470.585
  H     -109.527    -122.145     468.676
  H     -110.660    -122.125     465.287
  H     -110.904    -119.468     466.275
  H     -108.828    -119.621     467.499
  H     -107.690    -121.060     465.053
  H     -114.744    -122.331     470.062
  H     -106.289    -122.208     466.743
  H     -113.503    -122.600     471.254
  H     -105.972    -120.463     466.710
  P     -108.058    -117.238     466.595
  C     -110.048    -115.742     465.974
  O     -109.572    -116.760     466.829
  O     -107.149    -116.211     466.008
  O     -107.576    -117.642     468.070
  H     -106.902    -117.007     468.368
  H     -111.142    -115.743     466.001
  H     -109.719    -115.906     464.946
  H     -109.686    -114.772     466.323
  H     -103.673    -123.158     469.282
  H     -105.347    -123.215     468.786
  H     -104.941    -122.876     470.451

 3  4  5  6  7  8  9  10  11  12  13  23  27  28  29  30  32 0
 6-311+G(2d,p)
 ****
 34  35 0
 6-311+G(2d,p)
 ****
 1  2  14  15  16  17  18  19  20  21  22  24  25  26 0
 3-21G
 ****
 31  33  36  37  38  39  40  41  42  43  44  45  46 0
 3-21G
 ****


