%nproc=1
%NoSave
%Mem=1900MB
#P OB98/GEN NMR

erre ene a

0 1
  C       57.974       7.768     161.837
  O       56.715       7.991     161.237
  H       58.624       8.618     161.612
  H       58.436       6.860     161.440
  H       57.869       7.688     162.923
  P       55.613       6.831     161.323
  C       54.417       7.333     159.087
  O       54.337       7.349     160.503
  C       53.468       8.371     158.474
  O       52.168       8.259     159.121
  C       53.939       9.824     158.650
  O       53.445      10.572     157.533
  C       53.217      10.221     159.923
  O       53.232      11.613     160.113
  C       51.860       9.549     159.691
  N       51.077       9.436     160.911
  C       50.421      10.594     161.333
  O       50.531      11.641     160.694
  N       49.681      10.549     162.488
  C       49.654       9.463     163.193
  N       48.914       9.487     164.335
  C       50.381       8.232     162.812
  C       51.062       8.287     161.668
  O       55.312       6.321     162.693
  O       56.200       5.672     160.385
  H       52.919      11.848     161.016
  H       56.554       4.950     160.938
  H       50.342       7.358     163.444
  H       51.629       7.435     161.305
  H       51.272      10.104     158.949
  H       53.710       9.781     160.796
  H       55.026       9.915     158.716
  H       53.318       8.128     157.415
  H       48.441      10.353     164.562
  H       54.139       6.328     158.753
  H       48.837       8.709     164.972
  H       55.443       7.539     158.765
  P       54.341      10.916     156.248
  C       53.890      13.333     155.463
  O       53.555      11.956     155.315
  O       54.850       9.712     155.523
  O       55.566      11.781     156.817
  H       56.353      11.619     156.265
  H       53.300      13.918     154.789
  H       54.928      13.473     155.242
  H       53.694      13.642     156.469

 6  7  8  9  10  11  12  13  14  15  16  26  30  31  32  33  35 0
 6-311+G(2d,p)
 ****
 37  38 0
 6-311+G(2d,p)
 ****
 1  2  3  4  5  17  18  19  20  21  22  23  24  25 0
 3-21G
 ****
 27  28  29  34  36  39  40  41  42  43  44  45  46 0
 3-21G
 ****


