%nproc=1
%NoSave
%Mem=1900MB
#P OB98/GEN NMR

erre ene a

0 1
  C      122.971     -95.618    -199.952
  O      123.638     -96.692    -199.320
  H      121.911     -95.871    -200.045
  H      123.383     -95.460    -200.953
  H      123.069     -94.705    -199.358
  P      125.174     -96.461    -198.931
  C      124.869     -96.259    -196.330
  O      125.196     -95.624    -197.559
  C      126.113     -96.367    -195.451
  O      126.710     -95.073    -195.231
  C      125.832     -96.881    -194.049
  O      125.510     -98.252    -194.023
  C      127.149     -96.542    -193.365
  O      128.161     -97.507    -193.686
  C      127.479     -95.170    -194.001
  N      127.206     -94.057    -193.103
  C      127.839     -92.850    -193.418
  O      128.567     -92.769    -194.409
  N      127.656     -91.774    -192.587
  C      126.889     -91.882    -191.548
  N      126.755     -90.783    -190.759
  C      126.181     -93.130    -191.194
  C      126.388     -94.166    -192.003
  O      125.650     -95.384    -200.011
  O      126.012     -97.697    -198.878
  H      128.994     -97.171    -193.301
  H      125.088     -94.592    -200.046
  H      125.543     -93.171    -190.322
  H      125.907     -95.119    -191.814
  H      128.538     -95.123    -194.288
  H      127.057     -96.532    -192.277
  H      125.047     -96.282    -193.575
  H      126.845     -96.997    -195.973
  H      127.272     -89.953    -191.022
  H      124.432     -97.245    -196.507
  H      126.212     -90.761    -189.909
  H      124.108     -95.647    -195.835
  P      124.040     -98.752    -194.420
  C      125.083    -100.530    -195.962
  O      124.173     -99.438    -195.865
  O      122.969     -97.719    -194.319
  O      123.812    -100.018    -193.466
  H      124.458    -100.738    -193.582
  H      125.087    -100.903    -196.965
  H      124.779    -101.308    -195.293
  H      126.066    -100.199    -195.701

 6  7  8  9  10  11  12  13  14  15  16  26  30  31  32  33  35 0
 6-311+G(2d,p)
 ****
 37  38 0
 6-311+G(2d,p)
 ****
 1  2  3  4  5  17  18  19  20  21  22  23  24  25 0
 3-21G
 ****
 27  28  29  34  36  39  40  41  42  43  44  45  46 0
 3-21G
 ****


