%nproc=1
%NoSave
%Mem=1900MB
#P OB98/GEN NMR

erre ene a

0 1
  C     -528.023     -10.319    -327.788
  O     -529.281     -10.965    -327.866
  P     -530.603     -10.113    -328.174
  C     -531.252     -11.087    -330.460
  O     -531.582     -11.008    -329.077
  C     -532.265     -11.968    -331.201
  O     -531.868     -13.358    -331.158
  C     -533.659     -11.939    -330.600
  O     -534.335     -10.721    -330.869
  C     -534.277     -13.174    -331.250
  O     -534.723     -12.881    -332.577
  C     -533.077     -14.140    -331.275
  N     -533.158     -15.161    -330.238
  C     -534.175     -16.110    -330.375
  O     -534.997     -16.014    -331.289
  N     -534.239     -17.134    -329.470
  C     -533.446     -17.144    -328.448
  N     -533.518     -18.221    -327.613
  C     -532.464     -16.078    -328.174
  C     -532.358     -15.133    -329.115
  O     -530.368      -8.732    -328.691
  O     -531.370     -10.063    -326.770
  H     -531.615      -9.133    -326.571
  H     -535.134     -13.695    -332.921
  H     -531.873     -16.088    -327.270
  H     -531.653     -14.315    -329.016
  H     -533.016     -14.638    -332.251
  H     -535.147     -13.545    -330.693
  H     -533.606     -12.087    -329.512
  H     -532.293     -11.647    -332.253
  H     -534.187     -18.942    -327.840
  H     -530.251     -11.516    -330.564
  H     -532.754     -18.486    -326.996
  H     -531.242     -10.079    -330.886
  P     -535.377     -10.209    -329.767
  C     -535.223      -7.624    -329.661
  O     -535.873      -8.746    -330.212
  O     -534.450      -9.914    -328.491
  O     -536.464     -11.181    -329.444
  H     -534.932     -10.154    -327.670
  H     -535.408      -6.758    -330.303
  H     -534.143      -7.779    -329.593
  H     -535.624      -7.418    -328.669
  H     -527.263     -11.042    -327.577
  H     -528.046      -9.587    -327.008
  H     -527.810      -9.840    -328.721

 3  4  5  6  7  8  9  10  11  12  13  24  27  28  29  30  32 0
 6-311+G(2d,p)
 ****
 34  35 0
 6-311+G(2d,p)
 ****
 1  2  14  15  16  17  18  19  20  21  22  23  25  26 0
 3-21G
 ****
 31  33  36  37  38  39  40  41  42  43  44  45  46 0
 3-21G
 ****


