%nproc=1
%NoSave
%Mem=1900MB
#P OB98/GEN NMR

erre ene a

0 1
  C     -954.406     996.414     -92.524
  O     -953.498     995.578     -93.234
  P     -953.937     994.121     -93.744
  C     -952.803     993.064     -91.699
  O     -954.019     993.226     -92.417
  C     -952.888     991.837     -90.783
  O     -953.968     992.039     -89.842
  C     -953.215     990.516     -91.480
  O     -952.083     989.851     -92.028
  C     -953.746     989.706     -90.304
  O     -952.656     989.219     -89.513
  C     -954.548     990.756     -89.526
  N     -959.116     988.700     -88.467
  C     -957.893     988.512     -87.922
  N     -956.714     989.083     -88.282
  C     -956.904     989.959     -89.270
  C     -958.083     990.269     -89.920
  C     -959.238     989.603     -89.475
  N     -960.489     989.816     -90.024
  N     -957.871     991.213     -90.914
  C     -956.585     991.479     -90.844
  N     -955.963     990.763     -89.857
  O     -953.088     993.576     -94.851
  O     -955.469     994.300     -94.152
  H     -952.058     989.976     -89.338
  H     -955.754     993.543     -94.735
  H     -957.853     987.799     -87.101
  H     -956.064     992.183     -91.481
  H     -954.463     990.619     -88.438
  H     -954.332     988.837     -90.616
  H     -954.008     990.642     -92.219
  H     -951.953     991.767     -90.218
  H     -952.654     993.953     -91.072
  H     -961.280     989.376     -89.548
  H     -960.613     990.591     -90.653
  H     -951.960     992.983     -92.383
  P     -952.214     989.329     -93.554
  C     -953.861     987.393     -92.965
  O     -953.635     988.608     -93.647
  O     -951.054     988.547     -94.025
  O     -952.443     990.695     -94.367
  H     -953.283     991.151     -94.195
  H     -954.925     987.142     -93.023
  H     -953.582     987.474     -91.907
  H     -953.296     986.582     -93.440
  H     -953.922     997.336     -92.275
  H     -954.717     995.921     -91.627
  H     -955.261     996.613     -93.136

 3  4  5  6  7  8  9  10  11  12  22  25  29  30  31  32 0
 6-311+G(2d,p)
 ****
 33  36  37 0
 6-311+G(2d,p)
 ****
 1  2  13  14  15  16  17  18  19  20  21  23  24  26 0
 3-21G
 ****
 27  28  34  35  38  39  40  41  42  43  44  45  46  47  48 0
 3-21G
 ****


