%nproc=1
%NoSave
%Mem=1900MB
#P OB98/GEN NMR

erre ene a

0 1
  C     -132.316    -150.511     -94.043
  O     -132.996    -150.125     -95.243
  P     -132.301    -149.078     -96.237
  C     -131.885    -146.540     -96.335
  O     -132.644    -147.588     -95.745
  C     -132.534    -145.162     -96.136
  O     -133.821    -145.098     -96.806
  C     -132.763    -144.781     -94.665
  O     -132.545    -143.364     -94.567
  C     -134.225    -145.114     -94.468
  O     -134.783    -144.467     -93.333
  C     -134.795    -144.684     -95.829
  N     -136.104    -145.258     -96.092
  C     -137.195    -144.696     -95.427
  O     -137.022    -143.819     -94.581
  N     -138.457    -145.158     -95.725
  C     -138.596    -146.192     -96.498
  N     -139.856    -146.614     -96.777
  C     -137.449    -146.933     -97.062
  C     -136.247    -146.402     -96.847
  O     -132.521    -149.329     -97.691
  O     -130.742    -149.220     -95.861
  H     -134.877    -143.511     -93.523
  H     -130.212    -149.099     -96.673
  H     -137.601    -147.843     -97.625
  H     -135.349    -146.857     -97.231
  H     -134.876    -143.587     -95.880
  H     -134.341    -146.197     -94.331
  H     -132.089    -145.292     -93.969
  H     -131.880    -144.417     -96.614
  H     -140.636    -146.119     -96.356
  H     -131.776    -146.737     -97.407
  H     -140.047    -147.389     -97.412
  H     -130.867    -146.565     -95.920
  P     -131.804    -142.778     -93.271
  C     -132.533    -141.319     -91.239
  O     -132.918    -142.206     -92.273
  O     -131.158    -141.422     -93.846
  O     -130.730    -143.643     -92.681
  H     -130.377    -141.187     -93.307
  H     -133.425    -140.830     -90.846
  H     -131.846    -140.556     -91.613
  H     -132.047    -141.879     -90.429
  H     -132.918    -151.211     -93.501
  H     -132.142    -149.646     -93.438
  H     -131.380    -150.965     -94.294

 3  4  5  6  7  8  9  10  11  12  13  23  27  28  29  30  32 0
 6-311+G(2d,p)
 ****
 34  35 0
 6-311+G(2d,p)
 ****
 1  2  14  15  16  17  18  19  20  21  22  24  25  26 0
 3-21G
 ****
 31  33  36  37  38  39  40  41  42  43  44  45  46 0
 3-21G
 ****


