%nproc=1
%NoSave
%Mem=1900MB
#P OB98/GEN NMR

erre ene a

0 1
  C     -187.141     267.965     -96.333
  O     -187.046     267.715     -97.721
  H     -188.033     268.569     -96.147
  H     -186.265     268.515     -95.980
  H     -187.236     267.024     -95.786
  P     -185.756     266.942     -98.271
  C     -184.125     268.945     -98.369
  O     -184.476     267.733     -97.720
  C     -182.641     269.273     -98.154
  O     -182.406     269.472     -96.729
  C     -181.687     268.159     -98.620
  O     -180.465     268.787     -99.025
  C     -181.488     267.378     -97.337
  O     -180.396     266.498     -97.431
  C     -181.392     268.525     -96.327
  N     -181.576     268.079     -94.953
  C     -180.420     267.696     -94.270
  O     -179.324     267.731     -94.831
  N     -180.537     267.251     -92.978
  C     -181.710     267.137     -92.440
  N     -181.758     266.675     -91.163
  C     -182.964     267.473     -93.148
  C     -182.822     267.941     -94.390
  O     -185.739     266.669     -99.738
  O     -185.732     265.583     -97.426
  H     -179.586     266.972     -97.722
  H     -186.031     264.841     -97.984
  H     -183.918     267.342     -92.663
  H     -183.684     268.216     -94.990
  H     -180.423     269.032     -96.403
  H     -182.366     266.760     -97.123
  H     -182.095     267.561     -99.440
  H     -182.413     270.221     -98.651
  H     -180.876     266.444     -90.719
  H     -184.746     269.740     -97.943
  H     -182.614     266.527     -90.648
  H     -184.331     268.873     -99.442
  P     -180.272     269.476    -100.463
  C     -178.723     267.854    -101.738
  O     -180.054     268.340    -101.571
  O     -179.241     270.557    -100.486
  O     -181.713     270.075    -100.826
  H     -181.595     270.875    -101.376
  H     -178.710     267.104    -102.502
  H     -178.380     267.431    -100.817
  H     -178.081     268.662    -102.021

 6  7  8  9  10  11  12  13  14  15  16  26  30  31  32  33  35 0
 6-311+G(2d,p)
 ****
 37  38 0
 6-311+G(2d,p)
 ****
 1  2  3  4  5  17  18  19  20  21  22  23  24  25 0
 3-21G
 ****
 27  28  29  34  36  39  40  41  42  43  44  45  46 0
 3-21G
 ****


