%nproc=1
%NoSave
%Mem=1900MB
#P OB98/GEN NMR

erre ene a

0 1
  C      536.298     445.120    -194.385
  O      537.131     444.126    -193.769
  P      536.430     443.161    -192.696
  C      537.148     440.994    -191.449
  O      537.558     442.168    -192.136
  C      538.327     440.019    -191.287
  O      538.835     439.614    -192.572
  C      539.518     440.609    -190.548
  O      539.327     440.594    -189.144
  C      540.619     439.627    -190.949
  O      540.566     438.457    -190.104
  C      540.237     439.260    -192.394
  N      544.850     439.916    -194.400
  C      544.428     439.078    -193.383
  N      545.379     438.279    -192.849
  N      543.200     439.021    -192.935
  C      542.353     439.864    -193.605
  C      542.652     440.737    -194.619
  C      544.018     440.814    -195.076
  O      544.443     441.560    -195.944
  N      541.535     441.416    -195.030
  C      540.553     440.921    -194.288
  N      541.007     439.983    -193.397
  O      535.516     442.211    -193.603
  O      535.630     443.881    -191.662
  H      540.580     438.777    -189.177
  H      534.759     441.883    -193.090
  H      545.811     439.931    -194.696
  H      539.511     441.203    -194.360
  H      540.328     438.193    -192.586
  H      541.631     440.055    -190.835
  H      546.325     438.214    -193.184
  H      539.757     441.614    -190.921
  H      545.084     437.632    -192.120
  H      537.958     439.128    -190.767
  H      536.346     440.496    -192.002
  H      536.732     441.267    -190.477
  P      539.180     442.021    -188.409
  C      538.657     442.707    -185.961
  O      539.095     441.694    -186.838
  O      537.698     442.473    -188.795
  O      540.201     443.029    -188.817
  H      537.639     443.451    -188.809
  H      537.801     443.256    -186.370
  H      539.483     443.412    -185.771
  H      538.362     442.260    -185.016
  H      536.879     445.695    -195.075
  H      535.897     445.766    -193.632
  H      535.496     444.640    -194.907

 3  4  5  6  7  8  9  10  11  12  23  26  30  31  33  0
 6-311+G(2d,p)
 ****
 35  36  37  38 0
 6-311+G(2d,p)
 ****
 1  2  13  14  15  16  17  18  19  20  21  22  24  25  27  28  29 0
 3-21G
 ****
 32  34  39  40  41  42  43  44  45  46  47  48  49 0
 3-21G
 ****


