%nproc=1
%NoSave
%Mem=1900MB
#P OB98/GEN NMR

erre ene a

0 1
  C      -97.842     -79.965     125.540
  O      -98.009     -78.544     125.564
  P      -99.520     -77.998     125.675
  C     -100.498     -75.888     126.843
  O      -99.439     -76.446     126.078
  C     -100.135     -74.483     127.325
  O      -99.262     -74.538     128.465
  C      -99.392     -73.642     126.297
  O     -100.277     -73.081     125.338
  C      -98.795     -72.557     127.180
  O      -99.775     -71.532     127.429
  C      -98.475     -73.321     128.473
  N      -93.922     -71.838     130.138
  C      -95.139     -71.187     130.189
  N      -95.147     -69.978     130.795
  N      -96.247     -71.673     129.693
  C      -96.091     -72.903     129.146
  C      -94.941     -73.650     129.032
  C      -93.716     -73.085     129.556
  O      -92.607     -73.604     129.507
  N      -95.182     -74.854     128.421
  C      -96.480     -74.850     128.191
  N      -97.076     -73.680     128.600
  O     -100.058     -78.700     127.009
  O     -100.367     -78.320     124.490
  H      -99.979     -71.117     126.567
  H     -101.027     -78.798     126.967
  H      -93.098     -71.414     130.527
  H      -97.036     -75.662     127.739
  H      -98.766     -72.753     129.365
  H      -97.931     -72.063     126.719
  H      -94.349     -69.574     131.261
  H      -98.588     -74.220     125.822
  H      -96.037     -69.500     130.874
  H     -101.064     -73.975     127.622
  H     -100.708     -76.524     127.705
  H     -101.407     -75.870     126.232
  P     -100.093     -73.541     123.810
  C     -101.861     -74.097     121.994
  O     -101.516     -73.307     123.117
  O      -99.969     -75.131     123.924
  O      -98.916     -72.936     123.122
  H      -99.430     -75.482     123.191
  H     -101.583     -75.142     122.149
  H     -101.358     -73.710     121.105
  H     -102.942     -74.040     121.843
  H      -96.801     -80.201     125.465
  H      -98.361     -80.371     124.697
  H      -98.239     -80.386     126.440

 3  4  5  6  7  8  9  10  11  12  23  26  30  31  33  0
 6-311+G(2d,p)
 ****
 35  36  37  38 0
 6-311+G(2d,p)
 ****
 1  2  13  14  15  16  17  18  19  20  21  22  24  25  27  28  29 0
 3-21G
 ****
 32  34  39  40  41  42  43  44  45  46  47  48  49 0
 3-21G
 ****


