%nproc=1
%NoSave
%Mem=1900MB
#P OB98/GEN NMR

erre ene a

0 1
  C     -578.198     112.271     -98.014
  O     -579.568     112.214     -97.624
  P     -579.909     112.008     -96.076
  C     -582.238     110.935     -96.424
  O     -581.508     112.043     -95.889
  C     -583.698     111.332     -96.701
  O     -584.242     111.980     -95.515
  C     -583.888     112.339     -97.848
  O     -584.055     111.827     -99.167
  C     -585.211     112.989     -97.463
  O     -586.309     112.162     -97.907
  C     -585.176     113.005     -95.934
  N     -586.557     117.904     -95.348
  C     -587.174     116.847     -95.938
  N     -586.737     115.576     -96.049
  C     -585.535     115.434     -95.467
  C     -584.789     116.409     -94.827
  C     -585.341     117.699     -94.786
  N     -584.708     118.772     -94.192
  N     -583.607     115.887     -94.360
  C     -583.626     114.619     -94.726
  N     -584.783     114.292     -95.386
  O     -579.139     112.847     -95.112
  O     -579.583     110.445     -95.853
  H     -586.222     111.316     -97.428
  H     -579.190     110.330     -94.968
  H     -588.149     117.060     -96.375
  H     -582.834     113.907     -94.538
  H     -586.146     112.755     -95.490
  H     -585.350     113.967     -97.925
  H     -583.086     113.092     -97.843
  H     -584.286     110.433     -96.890
  H     -582.214     110.103     -95.709
  H     -585.155     119.669     -94.243
  H     -583.781     118.652     -93.814
  H     -581.721     110.600     -97.320
  P     -582.885     111.926    -100.257
  C     -583.860     112.617    -102.591
  O     -583.581     111.591    -101.665
  O     -581.670     111.120     -99.957
  O     -582.628     113.504    -100.349
  H     -583.367     114.008    -100.750
  H     -584.124     112.165    -103.548
  H     -582.989     113.256    -102.731
  H     -584.703     113.212    -102.234
  H     -578.134     112.411     -99.073
  H     -577.712     111.356     -97.745
  H     -577.719     113.088     -97.516

 3  4  5  6  7  8  9  10  11  12  22  25  29  30  31  32 0
 6-311+G(2d,p)
 ****
 33  36  37 0
 6-311+G(2d,p)
 ****
 1  2  13  14  15  16  17  18  19  20  21  23  24  26 0
 3-21G
 ****
 27  28  34  35  38  39  40  41  42  43  44  45  46  47  48 0
 3-21G
 ****


