%nproc=1
%NoSave
%Mem=1900MB
#P OB98/GEN NMR

erre ene a

0 1
  C     -231.626    -134.169      75.848
  O     -231.267    -134.143      74.468
  P     -232.420    -134.016      73.362
  C     -232.193    -136.525      72.849
  O     -233.090    -135.461      73.144
  C     -232.925    -137.793      72.380
  O     -233.696    -138.377      73.466
  C     -233.887    -137.570      71.204
  O     -233.827    -138.744      70.385
  C     -235.229    -137.465      71.900
  O     -236.318    -137.673      71.012
  C     -235.054    -138.520      72.997
  N     -236.014    -138.367      74.078
  C     -237.138    -139.195      74.053
  O     -237.338    -139.938      73.092
  N     -238.024    -139.134      75.107
  C     -237.871    -138.219      76.019
  N     -238.755    -138.206      77.052
  C     -236.792    -137.211      75.977
  C     -235.899    -137.362      75.004
  O     -232.035    -133.305      72.108
  O     -233.573    -133.212      74.143
  H     -237.130    -137.835      71.540
  H     -234.037    -132.627      73.511
  H     -236.755    -136.422      76.711
  H     -235.068    -136.676      74.891
  H     -235.149    -139.532      72.584
  H     -235.339    -136.468      72.343
  H     -233.634    -136.695      70.594
  H     -232.162    -138.532      72.093
  H     -239.500    -138.887      77.054
  H     -231.609    -136.759      73.743
  H     -238.673    -137.559      77.826
  H     -231.471    -136.184      72.093
  P     -232.872    -138.743      69.093
  C     -234.653    -137.524      67.639
  O     -233.332    -137.539      68.141
  O     -233.418    -140.026      68.287
  O     -231.411    -138.890      69.357
  H     -232.701    -140.365      67.716
  H     -234.872    -136.519      67.263
  H     -235.377    -137.762      68.423
  H     -234.744    -138.240      66.818
  H     -230.742    -134.257      76.445
  H     -232.267    -135.006      76.034
  H     -232.138    -133.264      76.100

 3  4  5  6  7  8  9  10  11  12  13  23  27  28  29  30  32 0
 6-311+G(2d,p)
 ****
 34  35 0
 6-311+G(2d,p)
 ****
 1  2  14  15  16  17  18  19  20  21  22  24  25  26 0
 3-21G
 ****
 31  33  36  37  38  39  40  41  42  43  44  45  46 0
 3-21G
 ****


