%nproc=1
%NoSave
%Mem=1900MB
#P OB98/GEN NMR

erre ene a

0 1
  C      304.070      26.777     -78.801
  O      304.036      26.815     -77.389
  H      303.043      26.778     -79.178
  H      304.560      25.856     -79.127
  H      304.597      27.644     -79.205
  P      305.391      27.215     -76.632
  C      307.652      26.005     -76.226
  O      306.481      26.099     -77.022
  C      308.259      24.605     -76.328
  O      307.297      23.640     -75.794
  C      308.601      24.172     -77.763
  O      309.801      23.389     -77.739
  C      307.446      23.255     -78.124
  O      307.784      22.338     -79.160
  C      307.175      22.595     -76.776
  N      304.777      18.306     -77.802
  C      306.126      18.588     -77.748
  N      306.976      17.593     -78.077
  N      306.608      19.756     -77.405
  C      305.649      20.659     -77.079
  C      304.284      20.506     -77.098
  C      303.762      19.214     -77.497
  O      302.577      18.909     -77.583
  N      303.656      21.680     -76.762
  C      304.638      22.543     -76.562
  N      305.866      21.970     -76.747
  O      305.047      26.889     -75.103
  O      305.833      28.629     -76.816
  H      308.052      22.853     -79.949
  H      304.738      27.699     -74.653
  H      304.458      17.399     -78.089
  H      304.515      23.584     -76.309
  H      307.909      21.813     -76.537
  H      306.583      23.849     -78.453
  H      306.684      16.660     -78.322
  H      308.718      25.007     -78.465
  H      307.973      17.772     -78.004
  H      309.146      24.559     -75.688
  H      307.393      26.205     -75.180
  H      308.376      26.758     -76.556
  P      311.061      23.914     -78.580
  C      311.569      24.074     -81.130
  O      310.952      23.348     -80.077
  O      312.280      23.081     -77.962
  O      311.293      25.386     -78.470
  H      313.090      23.626     -77.964
  H      311.405      23.566     -82.057
  H      312.620      24.147     -80.945
  H      311.147      25.056     -81.181

 6  7  8  9  10  11  12  13  14  15  26  29  33  34 0
 6-311+G(2d,p)
 ****
 36  38  39  40  41 0
 6-311+G(2d,p)
 ****
 1  2  3  4  5  16  17  18  19  20  21  22  23  24  25 0
 3-21G
 ****
 27  28  30  31  32  35  37  42  43  44  45  46  47 0
 3-21G
 ****
 48  49 0
 3-21G
 ****


