%nproc=1
%NoSave
%Mem=1900MB
#P OB98/GEN NMR

erre ene a

0 1
  C     -273.680      65.772     -13.695
  O     -272.261      65.809     -13.635
  P     -271.594      66.575     -12.389
  C     -271.492      69.062     -11.653
  O     -271.756      68.139     -12.704
  C     -270.744      70.277     -12.182
  O     -269.405      69.902     -12.560
  C     -271.355      70.900     -13.429
  O     -272.448      71.754     -13.116
  C     -270.173      71.704     -13.964
  O     -270.078      72.954     -13.262
  C     -268.980      70.798     -13.612
  N     -265.107      69.971     -16.771
  C     -265.221      70.870     -15.728
  N     -264.140      71.640     -15.475
  N     -266.298      71.004     -15.000
  C     -267.287      70.142     -15.344
  C     -267.291      69.205     -16.359
  C     -266.111      69.104     -17.189
  O     -265.975      68.373     -18.169
  N     -268.473      68.508     -16.385
  C     -269.163      68.987     -15.368
  N     -268.498      70.003     -14.725
  O     -270.028      66.315     -12.601
  O     -272.056      66.119     -11.045
  H     -270.740      73.555     -13.650
  H     -269.564      66.371     -11.741
  H     -264.247      69.896     -17.285
  H     -270.139      68.634     -15.068
  H     -268.142      71.385     -13.215
  H     -270.262      71.938     -15.028
  H     -263.242      71.492     -15.913
  H     -271.636      70.137     -14.158
  H     -264.193      72.281     -14.691
  H     -270.676      71.017     -11.373
  H     -270.881      68.574     -10.887
  H     -272.444      69.360     -11.200
  P     -273.724      71.668     -14.084
  C     -274.188      72.512     -16.499
  O     -273.346      72.554     -15.360
  O     -274.825      72.545     -13.317
  O     -274.196      70.279     -14.358
  H     -275.724      72.253     -13.568
  H     -275.240      72.421     -16.215
  H     -273.907      71.659     -17.127
  H     -274.058      73.433     -17.070
  H     -273.986      65.235     -14.568
  H     -274.061      66.771     -13.738
  H     -274.061      65.282     -12.823

 3  4  5  6  7  8  9  10  11  12  23  26  30  31  33  0
 6-311+G(2d,p)
 ****
 35  36  37  38 0
 6-311+G(2d,p)
 ****
 1  2  13  14  15  16  17  18  19  20  21  22  24  25  27  28  29 0
 3-21G
 ****
 32  34  39  40  41  42  43  44  45  46  47  48  49 0
 3-21G
 ****


