%nproc=1
%NoSave
%Mem=1900MB
#P OB98/GEN NMR

erre ene a

0 1
  C       19.184      29.108     -23.785
  O       18.028      28.557     -24.419
  P       17.378      29.330     -25.663
  C       19.321      29.200     -27.350
  O       18.015      28.750     -27.020
  C       20.004      28.225     -28.320
  O       20.269      26.951     -27.663
  C       19.143      27.924     -29.554
  O       19.974      27.702     -30.706
  C       18.488      26.604     -29.195
  O       18.031      25.911     -30.354
  C       19.625      25.920     -28.439
  N       17.896      21.102     -28.272
  C       18.347      21.860     -29.297
  N       18.813      23.126     -29.262
  C       18.800      23.603     -28.007
  C       18.378      22.945     -26.861
  C       17.900      21.634     -27.028
  N       17.414      20.872     -25.989
  N       18.506      23.756     -25.752
  C       18.952      24.901     -26.228
  N       19.176      24.847     -27.577
  O       17.360      30.818     -25.563
  O       15.887      28.740     -25.707
  H       17.900      24.977     -30.103
  H       15.261      29.468     -25.888
  H       18.325      21.387     -30.274
  H       19.115      25.797     -25.646
  H       20.375      25.504     -29.123
  H       17.628      26.783     -28.540
  H       18.408      28.698     -29.796
  H       20.974      28.638     -28.618
  H       19.918      29.300     -26.442
  H       16.985      19.989     -26.221
  H       17.274      21.308     -25.088
  H       19.256      30.207     -27.779
  P       19.935      28.851     -31.834
  C       20.875      31.076     -30.836
  O       21.135      29.849     -31.479
  O       18.589      29.471     -32.007
  O       20.448      28.059     -33.127
  H       21.269      27.555     -32.998
  H       21.827      31.544     -30.571
  H       20.297      30.922     -29.921
  H       20.332      31.746     -31.509
  H       19.486      28.472     -22.980
  H       18.952      30.080     -23.404
  H       19.979      29.184     -24.497

 3  4  5  6  7  8  9  10  11  12  22  25  29  30  31  32 0
 6-311+G(2d,p)
 ****
 33  36  37 0
 6-311+G(2d,p)
 ****
 1  2  13  14  15  16  17  18  19  20  21  23  24  26 0
 3-21G
 ****
 27  28  34  35  38  39  40  41  42  43  44  45  46  47  48 0
 3-21G
 ****


