%nproc=1
%NoSave
%Mem=1900MB
#P OB98/GEN NMR

erre ene a

0 1
  C      614.689    -515.280       5.056
  O      615.201    -516.603       5.281
  P      616.460    -517.079       4.413
  C      617.791    -518.340       6.263
  O      617.044    -518.429       5.055
  C      618.379    -519.707       6.631
  O      617.348    -520.663       6.942
  C      619.192    -520.341       5.513
  O      620.516    -519.827       5.468
  C      619.208    -521.798       5.953
  O      620.204    -521.990       6.975
  C      617.800    -521.973       6.545
  N      615.445    -526.254       4.995
  C      616.377    -526.034       5.946
  N      616.972    -524.873       6.281
  C      616.493    -523.858       5.543
  C      615.537    -523.926       4.544
  C      614.996    -525.198       4.272
  N      614.038    -525.416       3.312
  N      615.304    -522.679       3.997
  C      616.103    -521.872       4.669
  N      616.844    -522.536       5.603
  O      617.581    -515.989       4.773
  O      616.199    -517.130       2.944
  H      620.149    -522.926       7.247
  H      618.142    -515.824       3.989
  H      616.701    -526.909       6.504
  H      616.169    -520.800       4.513
  H      617.802    -522.616       7.432
  H      619.456    -522.483       5.138
  H      618.673    -520.248       4.548
  H      619.018    -519.574       7.516
  H      617.153    -517.975       7.075
  H      613.682    -526.347       3.192
  H      613.695    -524.624       2.784
  H      618.587    -517.593       6.134
  P      620.929    -518.973       4.174
  C      622.325    -517.268       5.557
  O      622.313    -518.263       4.542
  O      619.863    -517.783       4.179
  O      620.901    -519.737       2.898
  H      619.683    -517.487       3.266
  H      623.353    -517.117       5.891
  H      621.713    -517.568       6.412
  H      621.938    -516.328       5.143
  H      613.855    -515.106       5.703
  H      614.375    -515.187       4.037
  H      615.455    -514.562       5.260

 3  4  5  6  7  8  9  10  11  12  22  25  29  30  31  32 0
 6-311+G(2d,p)
 ****
 33  36  37 0
 6-311+G(2d,p)
 ****
 1  2  13  14  15  16  17  18  19  20  21  23  24  26 0
 3-21G
 ****
 27  28  34  35  38  39  40  41  42  43  44  45  46  47  48 0
 3-21G
 ****


