%nproc=1
%NoSave
%Mem=1900MB
#P OB98/GEN NMR

erre ene a

0 1
  C      -63.973      87.191    -142.771
  O      -62.815      87.692    -142.128
  P      -61.409      87.590    -142.892
  C      -60.159      85.615    -144.088
  O      -61.155      86.032    -143.172
  C      -60.031      84.087    -144.074
  O      -61.233      83.509    -144.654
  C      -58.833      83.542    -144.863
  O      -58.356      82.385    -144.166
  C      -59.457      83.147    -146.190
  O      -58.683      82.190    -146.895
  C      -60.823      82.633    -145.721
  N      -61.831      82.610    -146.781
  C      -62.519      81.421    -147.000
  O      -62.317      80.386    -146.367
  N      -63.452      81.450    -148.004
  C      -63.707      82.501    -148.837
  O      -64.540      82.464    -149.734
  C      -62.914      83.713    -148.591
  C      -62.037      83.715    -147.587
  O      -60.389      87.947    -141.713
  O      -61.316      88.468    -144.094
  H      -60.676      87.607    -140.847
  H      -57.801      82.574    -147.060
  H      -63.990      80.609    -148.155
  H      -63.078      84.565    -149.241
  H      -61.439      84.597    -147.387
  H      -60.719      81.630    -145.293
  H      -59.559      84.036    -146.823
  H      -58.028      84.276    -144.962
  H      -59.983      83.757    -143.028
  H      -59.199      86.053    -143.807
  H      -60.414      85.973    -145.089
  P      -56.767      82.141    -144.098
  C      -54.879      81.761    -145.870
  O      -56.235      82.040    -145.604
  O      -56.737      80.613    -143.606
  O      -56.027      83.060    -143.183
  H      -57.329      80.040    -144.115
  H      -54.786      81.406    -146.899
  H      -54.489      80.991    -145.200
  H      -54.289      82.674    -145.759
  H      -64.823      87.332    -142.136
  H      -63.847      86.147    -142.971
  H      -64.125      87.715    -143.692

 3  4  5  6  7  8  9  10  11  12  13  24  28  29  30  31  32 0
 6-311+G(2d,p)
 ****
 33  34 0
 6-311+G(2d,p)
 ****
 1  2  14  15  16  17  18  19  20  21  22  23  25  26  27 0
 3-21G
 ****
 35  36  37  38  39  40  41  42  43  44  45 0
 3-21G
 ****


