%nproc=1
%NoSave
%Mem=1900MB
#P OB98/GEN NMR

erre ene a

0 1
  C       78.199    -241.290     223.625
  O       79.127    -241.811     222.665
  P       78.665    -242.270     221.198
  C       79.013    -239.947     220.154
  O       79.337    -241.333     220.073
  C       79.860    -239.073     219.214
  O       81.254    -239.056     219.633
  C       79.848    -239.508     217.740
  O       79.998    -238.311     216.974
  C       81.107    -240.363     217.652
  O       81.578    -240.544     216.324
  C       82.050    -239.555     218.545
  N       87.129    -240.244     218.363
  C       86.338    -239.248     217.901
  N       85.002    -239.114     218.023
  C       84.480    -240.129     218.733
  C       85.158    -241.214     219.278
  C       86.550    -241.257     219.053
  N       87.351    -242.294     219.478
  N       84.282    -242.075     219.913
  C       83.093    -241.523     219.752
  N       83.162    -240.344     219.048
  O       77.183    -242.433     221.047
  O       79.388    -243.686     220.978
  H       81.868    -239.675     215.980
  H       78.747    -244.323     220.610
  H       86.853    -238.454     217.362
  H       82.159    -241.939     220.097
  H       82.467    -238.692     218.006
  H       80.899    -241.355     218.073
  H       78.948    -240.047     217.449
  H       79.494    -238.040     219.307
  H       79.160    -239.614     221.193
  H       88.318    -242.284     219.197
  H       86.922    -243.116     219.888
  H       77.952    -239.819     219.911
  P       79.126    -238.039     215.655
  C       76.648    -237.476     215.986
  O       77.980    -236.995     216.071
  O       78.635    -239.269     214.961
  O       80.088    -237.172     214.710
  H       79.765    -237.223     213.783
  H       76.326    -237.502     214.939
  H       75.992    -236.806     216.549
  H       76.567    -238.481     216.415
  H       78.718    -241.049     224.529
  H       77.448    -242.024     223.830
  H       77.738    -240.408     223.233

 3  4  5  6  7  8  9  10  11  12  22  25  29  30  31  32 0
 6-311+G(2d,p)
 ****
 33  36  37 0
 6-311+G(2d,p)
 ****
 1  2  13  14  15  16  17  18  19  20  21  23  24  26 0
 3-21G
 ****
 27  28  34  35  38  39  40  41  42  43  44  45  46  47  48 0
 3-21G
 ****


