%nproc=1
%NoSave
%Mem=1900MB
#P OB98/GEN NMR

erre ene a

0 1
  C      -61.839    -329.610    -213.070
  O      -61.825    -328.227    -212.777
  H      -62.185    -329.748    -214.098
  H      -62.527    -330.128    -212.395
  H      -60.834    -330.031    -212.973
  P      -61.189    -327.789    -211.376
  C      -60.737    -325.326    -212.176
  O      -61.371    -326.197    -211.245
  C      -61.558    -324.048    -212.337
  O      -62.757    -324.289    -213.102
  C      -62.074    -323.478    -211.027
  O      -61.052    -322.908    -210.239
  C      -63.091    -322.471    -211.546
  O      -62.449    -321.272    -211.995
  C      -63.702    -323.248    -212.740
  N      -65.016    -323.793    -212.434
  C      -66.097    -323.192    -213.093
  O      -65.906    -322.267    -213.881
  N      -67.367    -323.635    -212.816
  C      -67.544    -324.609    -211.978
  N      -68.825    -324.996    -211.738
  C      -66.432    -325.290    -211.282
  C      -65.210    -324.832    -211.549
  O      -59.617    -327.943    -211.641
  O      -61.692    -328.538    -210.185
  H      -63.138    -320.740    -212.441
  H      -59.307    -327.463    -212.427
  H      -66.626    -326.103    -210.597
  H      -64.338    -325.274    -211.081
  H      -63.803    -322.591    -213.614
  H      -63.808    -322.178    -210.776
  H      -62.618    -324.249    -210.466
  H      -60.943    -323.318    -212.880
  H      -69.563    -324.492    -212.218
  H      -60.600    -325.823    -213.141
  H      -69.086    -325.718    -211.085
  H      -59.743    -325.091    -211.781
  P      -61.038    -323.110    -208.648
  C      -58.705    -324.151    -208.328
  O      -59.502    -322.981    -208.192
  O      -61.728    -324.339    -208.158
  O      -61.672    -321.744    -208.100
  H      -61.179    -320.941    -208.342
  H      -57.709    -323.945    -207.995
  H      -58.683    -324.450    -209.355
  H      -59.123    -324.938    -207.736

 6  7  8  9  10  11  12  13  14  15  16  26  30  31  32  33  35 0
 6-311+G(2d,p)
 ****
 37  38 0
 6-311+G(2d,p)
 ****
 1  2  3  4  5  17  18  19  20  21  22  23  24  25 0
 3-21G
 ****
 27  28  29  34  36  39  40  41  42  43  44  45  46 0
 3-21G
 ****


