%nproc=1
%NoSave
%Mem=1900MB
#P OB98/GEN NMR

erre ene a

0 1
  C     1056.600    -946.854    1262.332
  O     1056.648    -947.586    1263.548
  P     1057.945    -947.599    1264.518
  C     1056.734    -946.000    1266.155
  O     1057.928    -946.249    1265.430
  C     1056.760    -944.586    1266.759
  O     1057.787    -944.512    1267.777
  C     1057.028    -943.440    1265.760
  O     1056.163    -942.341    1266.160
  C     1058.481    -943.137    1266.013
  O     1058.898    -941.870    1265.526
  C     1058.560    -943.303    1267.514
  N     1059.882    -943.361    1268.128
  C     1060.565    -942.191    1268.387
  O     1060.089    -941.091    1268.028
  N     1061.796    -942.233    1268.971
  C     1062.351    -943.356    1269.276
  N     1063.557    -943.354    1269.873
  C     1061.642    -944.668    1269.030
  C     1060.428    -944.579    1268.452
  O     1059.222    -947.815    1263.802
  O     1057.694    -948.777    1265.565
  H     1058.524    -949.225    1265.786
  H     1058.516    -941.167    1266.080
  H     1062.119    -945.602    1269.321
  H     1059.897    -945.510    1268.260
  H     1058.008    -942.438    1267.984
  H     1059.083    -943.906    1265.493
  H     1056.792    -943.692    1264.734
  H     1055.801    -944.419    1267.285
  H     1063.999    -942.466    1270.027
  H     1056.640    -946.740    1266.954
  H     1064.032    -944.214    1270.161
  H     1055.863    -946.119    1265.454
  P     1055.146    -941.704    1265.126
  C     1052.982    -942.229    1266.477
  O     1053.737    -942.466    1265.308
  O     1055.669    -942.324    1263.724
  O     1055.116    -940.215    1265.002
  H     1055.405    -941.732    1263.000
  H     1051.915    -942.068    1266.199
  H     1053.318    -941.357    1267.033
  H     1053.057    -943.085    1267.122
  H     1055.647    -946.998    1261.867
  H     1057.373    -947.199    1261.677
  H     1056.744    -945.814    1262.536

 3  4  5  6  7  8  9  10  11  12  13  24  27  28  29  30  32 0
 6-311+G(2d,p)
 ****
 34  35 0
 6-311+G(2d,p)
 ****
 1  2  14  15  16  17  18  19  20  21  22  23  25  26 0
 3-21G
 ****
 31  33  36  37  38  39  40  41  42  43  44  45  46 0
 3-21G
 ****


