%nproc=1
%NoSave
%Mem=1900MB
#P OB98/GEN NMR

erre ene a

0 1
  C      -67.536      12.661     -87.004
  O      -66.212      13.156     -86.976
  H      -68.016      12.955     -87.939
  H      -67.504      11.570     -86.953
  H      -68.110      13.037     -86.153
  P      -66.022      14.730     -86.737
  C      -64.683      15.559     -88.801
  O      -64.637      15.131     -87.448
  C      -63.725      14.731     -89.656
  O      -64.283      13.396     -89.816
  C      -63.472      15.306     -91.059
  O      -62.095      15.103     -91.391
  C      -64.331      14.429     -91.953
  O      -63.854      14.376     -93.293
  C      -64.255      13.092     -91.221
  N      -65.654       9.372     -94.392
  C      -64.441       9.850     -94.041
  N      -64.154      10.813     -93.142
  C      -65.271      11.244     -92.533
  C      -66.574      10.849     -92.779
  C      -66.750       9.874     -93.776
  N      -67.985       9.429     -94.189
  N      -67.452      11.565     -91.989
  C      -66.694      12.395     -91.301
  N      -65.369      12.240     -91.596
  O      -65.676      14.802     -85.174
  O      -67.194      15.581     -87.091
  H      -64.090      15.209     -93.746
  H      -66.502      14.858     -84.660
  H      -63.591       9.410     -94.555
  H      -67.050      13.142     -90.605
  H      -63.330      12.544     -91.439
  H      -65.357      14.814     -91.967
  H      -63.722      16.369     -91.152
  H      -62.780      14.620     -89.110
  H      -64.385      16.612     -88.854
  H      -68.019       8.810     -94.984
  H      -68.813       9.872     -93.819
  H      -65.706      15.465     -89.176
  P      -61.216      16.401     -91.721
  C      -59.344      15.161     -93.041
  O      -59.691      15.949     -91.907
  O      -61.199      17.197     -90.332
  O      -61.767      17.240     -92.829
  H      -61.171      18.156     -90.492
  H      -58.296      14.945     -93.018
  H      -59.578      15.700     -93.935
  H      -59.897      14.245     -93.022

 6  7  8  9  10  11  12  13  14  15  25  28  32  33  34  35 0
 6-311+G(2d,p)
 ****
 36  39  40 0
 6-311+G(2d,p)
 ****
 1  2  3  4  5  16  17  18  19  20  21  22  23  24 0
 3-21G
 ****
 26  27  29  30  31  37  38  41  42  43  44  45  46  47 0
 3-21G
 ****
 48 0
 3-21G
 ****


