%nproc=1
%NoSave
%Mem=1900MB
#P OB98/GEN NMR

erre ene a

0 1
  C     -124.698    -227.859     195.261
  O     -123.848    -228.950     194.884
  P     -122.952    -229.740     195.952
  C     -124.427    -231.713     196.707
  O     -123.329    -231.299     195.897
  C     -124.166    -233.070     197.366
  O     -125.117    -233.321     198.419
  C     -124.261    -234.263     196.420
  O     -123.087    -234.378     195.639
  C     -124.497    -235.406     197.399
  O     -123.257    -235.833     197.986
  C     -125.385    -234.735     198.459
  N     -129.301    -237.786     199.698
  C     -128.010    -237.767     200.092
  N     -127.024    -236.925     199.714
  C     -127.490    -236.009     198.849
  C     -128.784    -235.905     198.352
  C     -129.714    -236.849     198.810
  N     -131.027    -236.874     198.395
  N     -128.881    -234.854     197.464
  C     -127.674    -234.323     197.439
  N     -126.800    -234.984     198.261
  O     -122.977    -229.154     197.330
  O     -121.466    -229.699     195.352
  H     -122.713    -236.218     197.271
  H     -120.816    -229.739     196.075
  H     -127.727    -238.534     200.810
  H     -127.384    -233.462     196.850
  H     -125.134    -235.075     199.472
  H     -124.954    -236.282     196.930
  H     -125.139    -234.156     195.771
  H     -123.170    -233.030     197.829
  H     -125.319    -231.778     196.073
  H     -131.626    -237.605     198.742
  H     -131.335    -236.209     197.696
  H     -124.599    -230.952     197.476
  P     -123.080    -233.885     194.118
  C     -121.024    -232.350     194.169
  O     -121.554    -233.584     193.723
  O     -124.045    -232.800     193.786
  O     -123.397    -235.220     193.284
  H     -123.863    -234.978     192.460
  H     -121.351    -231.548     193.508
  H     -119.933    -232.412     194.145
  H     -121.342    -232.137     195.195
  H     -125.200    -227.482     194.395
  H     -124.107    -227.081     195.698
  H     -125.421    -228.200     195.972

 3  4  5  6  7  8  9  10  11  12  22  25  29  30  31  32 0
 6-311+G(2d,p)
 ****
 33  36  37 0
 6-311+G(2d,p)
 ****
 1  2  13  14  15  16  17  18  19  20  21  23  24  26 0
 3-21G
 ****
 27  28  34  35  38  39  40  41  42  43  44  45  46  47  48 0
 3-21G
 ****


