%nproc=1
%NoSave
%Mem=1900MB
#P OB98/GEN NMR

erre ene a

0 1
  C     -381.698    -335.893    -261.106
  O     -380.634    -336.616    -260.513
  H     -382.135    -335.223    -260.357
  H     -382.485    -336.573    -261.455
  H     -381.332    -335.294    -261.942
  P     -379.940    -337.779    -261.365
  C     -378.155    -336.106    -262.203
  O     -379.171    -337.033    -262.555
  C     -376.846    -336.476    -262.896
  O     -377.071    -336.724    -264.297
  C     -375.798    -335.366    -262.826
  O     -375.212    -335.303    -261.544
  C     -374.872    -335.788    -263.954
  O     -373.982    -336.829    -263.539
  C     -375.880    -336.309    -265.004
  N     -376.201    -335.303    -266.026
  C     -375.223    -335.095    -266.998
  O     -374.171    -335.729    -266.981
  N     -375.460    -334.145    -267.970
  C     -376.572    -333.481    -267.968
  N     -376.746    -332.560    -268.951
  C     -377.631    -333.693    -266.958
  C     -377.381    -334.605    -266.025
  O     -380.818    -338.910    -261.803
  O     -378.744    -338.274    -260.420
  H     -373.455    -336.459    -262.806
  H     -379.047    -338.991    -259.834
  H     -378.551    -333.117    -267.004
  H     -378.110    -334.812    -265.251
  H     -375.482    -337.196    -265.509
  H     -374.268    -334.954    -264.305
  H     -376.248    -334.405    -263.101
  H     -376.463    -337.404    -262.445
  H     -375.987    -332.440    -269.609
  H     -378.033    -336.146    -261.114
  H     -377.600    -332.049    -269.096
  H     -378.445    -335.082    -262.482
  P     -374.552    -333.940    -261.016
  C     -375.724    -334.323    -258.750
  O     -375.520    -333.427    -259.837
  O     -374.250    -332.934    -262.069
  O     -373.262    -334.444    -260.216
  H     -372.541    -334.735    -260.831
  H     -376.381    -333.873    -258.035
  H     -374.785    -334.539    -258.285
  H     -376.160    -335.230    -259.113

 6  7  8  9  10  11  12  13  14  15  16  26  30  31  32  33  35 0
 6-311+G(2d,p)
 ****
 37  38 0
 6-311+G(2d,p)
 ****
 1  2  3  4  5  17  18  19  20  21  22  23  24  25 0
 3-21G
 ****
 27  28  29  34  36  39  40  41  42  43  44  45  46 0
 3-21G
 ****


