%nproc=1
%NoSave
%Mem=1900MB
#P OB98/GEN NMR

erre ene a

0 1
  C      -12.829     -88.819    -383.386
  O      -12.453     -89.088    -382.032
  P      -11.673     -90.458    -381.742
  C       -9.574     -89.213    -380.828
  O      -10.099     -90.162    -381.753
  C       -8.050     -89.157    -380.942
  O       -7.638     -88.723    -382.252
  C       -7.415     -88.169    -379.978
  O       -7.356     -88.711    -378.674
  C       -6.049     -87.939    -380.613
  O       -5.073     -88.876    -380.126
  C       -6.321     -88.164    -382.118
  N       -6.182     -86.944    -382.902
  C       -4.919     -86.345    -382.875
  O       -4.013     -86.832    -382.197
  N       -4.730     -85.191    -383.595
  C       -5.716     -84.676    -384.261
  N       -5.467     -83.530    -384.949
  C       -7.070     -85.267    -384.292
  C       -7.230     -86.392    -383.593
  O      -11.901     -91.303    -383.080
  O      -12.168     -91.193    -380.537
  H       -5.094     -88.792    -379.149
  H      -11.949     -92.255    -382.877
  H       -7.861     -84.796    -384.851
  H       -8.193     -86.892    -383.560
  H       -5.622     -88.906    -382.525
  H       -5.667     -86.939    -380.388
  H       -7.984     -87.229    -379.976
  H       -7.650     -90.166    -380.761
  H       -4.529     -83.152    -384.902
  H       -9.864     -89.480    -379.812
  H       -6.163     -83.041    -385.492
  H      -10.020     -88.234    -381.036
  P       -8.629     -88.510    -377.724
  C       -8.942     -91.059    -377.654
  O       -9.535     -89.813    -377.963
  O       -9.459     -87.385    -378.507
  O       -8.372     -88.130    -376.305
  H      -10.222     -87.099    -377.976
  H       -9.717     -91.827    -377.659
  H       -8.480     -91.030    -376.663
  H       -8.192     -91.310    -378.409
  H      -13.338     -87.879    -383.435
  H      -13.477     -89.595    -383.737
  H      -11.953     -88.782    -383.999

 3  4  5  6  7  8  9  10  11  12  13  21  23  27  28  29  30  32 0
 6-311+G(2d,p)
 ****
 34  35 0
 6-311+G(2d,p)
 ****
 1  2  14  15  16  17  18  19  20  22  24  25  26 0
 3-21G
 ****
 31  33  36  37  38  39  40  41  42  43  44  45  46 0
 3-21G
 ****


