%nproc=1
%NoSave
%Mem=1900MB
#P OB98/GEN NMR

erre ene a

0 1
  C      223.964     463.063      37.474
  O      224.651     462.574      38.611
  H      224.637     463.713      36.910
  H      223.089     463.645      37.782
  H      223.652     462.232      36.833
  P      223.817     461.615      39.588
  C      224.686     463.073      41.552
  O      224.492     461.762      41.041
  C      224.089     463.193      42.951
  O      222.664     462.949      42.921
  C      224.673     462.223      43.974
  O      225.886     462.718      44.513
  C      223.553     462.167      45.002
  O      223.597     463.302      45.895
  C      222.298     462.215      44.119
  N      218.091     459.542      43.304
  C      218.256     460.879      43.601
  N      217.121     461.602      43.758
  N      219.419     461.456      43.747
  C      220.457     460.602      43.594
  C      220.427     459.264      43.281
  C      219.135     458.644      43.098
  O      218.926     457.479      42.768
  N      221.694     458.743      43.199
  C      222.487     459.757      43.491
  N      221.784     460.904      43.762
  O      224.253     460.142      39.131
  O      222.336     461.786      39.549
  H      222.841     463.260      46.504
  H      223.511     459.529      39.284
  H      217.172     459.157      43.190
  H      223.566     459.713      43.525
  H      221.476     462.758      44.597
  H      223.625     461.276      45.631
  H      216.242     461.159      43.990
  H      224.813     461.229      43.532
  H      217.230     462.579      43.997
  H      224.230     464.229      43.284
  H      224.197     463.793      40.889
  H      225.758     463.290      41.585
  P      227.146     461.714      44.564
  C      227.916     462.593      46.889
  O      228.235     462.410      45.514
  O      227.786     461.854      43.104
  O      226.803     460.299      44.893
  H      228.384     461.103      42.926
  H      228.737     463.066      47.386
  H      227.726     461.642      47.341
  H      227.045     463.208      46.974

 6  7  8  9  10  11  12  13  14  15  26  29  33  34 0
 6-311+G(2d,p)
 ****
 36  38  39  40  41 0
 6-311+G(2d,p)
 ****
 1  2  3  4  5  16  17  18  19  20  21  22  23  24  25 0
 3-21G
 ****
 27  28  30  31  32  35  37  42  43  44  45  46  47 0
 3-21G
 ****
 48  49 0
 3-21G
 ****


