%nproc=1
%NoSave
%Mem=1900MB
#P OB98/GEN NMR

erre ene a

0 1
  C      288.271     122.081    -107.377
  O      289.350     122.991    -107.408
  H      287.889     122.024    -106.355
  H      288.609     121.088    -107.683
  H      287.466     122.421    -108.035
  P      290.051     123.251    -108.831
  C      289.697     125.828    -108.711
  O      290.625     124.751    -108.741
  C      290.225     126.964    -107.834
  O      290.031     126.620    -106.442
  C      291.715     127.250    -108.042
  O      291.928     128.663    -108.081
  C      292.385     126.638    -106.820
  O      293.623     127.271    -106.511
  C      291.287     126.779    -105.757
  N      291.440     125.787    -104.692
  C      292.362     126.082    -103.684
  O      293.014     127.130    -103.726
  N      292.568     125.167    -102.685
  C      291.951     124.024    -102.719
  N      292.212     123.149    -101.711
  C      291.006     123.650    -103.788
  C      290.794     124.571    -104.727
  O      288.807     123.381    -109.825
  O      291.052     122.224    -109.244
  H      293.427     128.147    -106.114
  H      289.090     123.332    -110.770
  H      290.526     122.682    -103.781
  H      290.117     124.382    -105.553
  H      291.308     127.778    -105.308
  H      292.587     125.577    -107.013
  H      292.107     126.808    -108.957
  H      289.623     127.860    -108.024
  H      292.877     123.436    -101.002
  H      288.747     125.463    -108.310
  H      291.813     122.225    -101.653
  H      289.541     126.196    -109.732
  P      291.969     129.324    -109.544
  C      290.339     131.305    -109.163
  O      291.684     130.897    -109.373
  O      290.645     128.766    -110.246
  O      293.206     128.995    -110.312
  H      290.858     128.013    -110.831
  H      290.300     132.370    -109.067
  H      289.965     130.853    -108.269
  H      289.740     131.000    -109.995

 6  7  8  9  10  11  12  13  14  15  16  26  30  31  32  33  35 0
 6-311+G(2d,p)
 ****
 37  38 0
 6-311+G(2d,p)
 ****
 1  2  3  4  5  17  18  19  20  21  22  23  24  25 0
 3-21G
 ****
 27  28  29  34  36  39  40  41  42  43  44  45  46 0
 3-21G
 ****


