%nproc=1
%NoSave
%Mem=1900MB
#P OB98/GEN NMR

erre ene a

0 1
  C      650.924    -114.478     -96.877
  O      649.748    -115.167     -96.455
  P      649.561    -115.471     -94.890
  C      649.379    -118.051     -94.895
  O      650.185    -116.916     -94.570
  C      650.127    -119.353     -94.568
  O      651.238    -119.500     -95.484
  C      650.730    -119.414     -93.159
  O      649.922    -119.922     -92.097
  C      651.860    -120.420     -93.365
  O      651.339    -121.764     -93.274
  C      652.333    -120.151     -94.792
  N      657.313    -120.080     -95.960
  C      656.384    -121.062     -96.008
  N      655.081    -121.003     -95.681
  C      654.752    -119.764     -95.275
  C      655.587    -118.662     -95.164
  C      656.933    -118.857     -95.533
  N      657.878    -117.858     -95.468
  N      654.892    -117.569     -94.702
  C      653.663    -118.006     -94.513
  N      653.522    -119.323     -94.856
  O      648.201    -115.218     -94.335
  O      650.642    -114.488     -94.224
  H      650.723    -121.770     -92.518
  H      650.270    -114.130     -93.390
  H      656.743    -122.030     -96.359
  H      652.847    -117.404     -94.130
  H      652.558    -121.071     -95.339
  H      652.636    -120.335     -92.602
  H      651.148    -118.443     -92.873
  H      649.446    -120.202     -94.719
  H      649.131    -118.022     -95.958
  H      658.831    -118.093     -95.705
  H      657.626    -116.954     -95.098
  H      648.441    -117.949     -94.347
  P      649.173    -118.941     -91.077
  C      651.209    -118.655     -89.448
  O      650.334    -118.064     -90.397
  O      648.250    -119.609     -90.116
  O      648.472    -117.892     -92.061
  H      649.086    -117.306     -92.534
  H      652.041    -117.972     -89.272
  H      651.604    -119.608     -89.823
  H      650.676    -118.821     -88.506
  H      650.902    -114.352     -97.939
  H      651.788    -115.047     -96.603
  H      650.964    -113.519     -96.405

 3  4  5  6  7  8  9  10  11  12  22  25  29  30  31  32 0
 6-311+G(2d,p)
 ****
 33  36  37 0
 6-311+G(2d,p)
 ****
 1  2  13  14  15  16  17  18  19  20  21  23  24  26 0
 3-21G
 ****
 27  28  34  35  38  39  40  41  42  43  44  45  46  47  48 0
 3-21G
 ****


