%nproc=1
%NoSave
%Mem=1900MB
#P OB98/GEN NMR

erre ene a

0 1
  C      226.483    -659.612     722.271
  O      227.207    -660.266     721.253
  H      226.411    -658.548     722.022
  H      227.004    -659.713     723.226
  H      225.469    -660.013     722.349
  P      227.233    -661.872     721.213
  C      229.385    -662.168     722.614
  O      227.965    -662.340     722.564
  C      229.831    -661.972     724.070
  O      231.291    -662.083     724.109
  C      229.444    -660.596     724.658
  O      229.169    -660.759     726.054
  C      230.732    -659.811     724.463
  O      230.788    -658.690     725.303
  C      231.774    -660.895     724.768
  N      233.102    -660.502     724.299
  C      234.111    -661.447     724.403
  O      233.947    -662.576     724.864
  N      235.363    -661.042     724.026
  C      235.709    -659.771     723.665
  O      236.860    -659.437     723.413
  C      234.610    -658.786     723.623
  C      233.377    -659.200     723.936
  O      227.757    -662.488     719.961
  O      225.710    -662.285     721.504
  H      230.834    -658.983     726.237
  H      225.531    -663.191     721.182
  H      236.103    -661.720     724.082
  H      234.854    -657.766     723.363
  H      232.544    -658.495     723.939
  H      231.824    -661.105     725.850
  H      230.812    -659.467     723.420
  H      228.585    -660.143     724.149
  H      229.428    -662.793     724.675
  H      229.631    -661.279     722.024
  H      229.875    -663.045     722.188
  P      227.740    -660.379     726.683
  C      228.202    -658.034     727.634
  O      227.506    -658.775     726.648
  O      227.470    -661.002     728.029
  O      226.671    -660.928     725.611
  H      225.960    -661.398     726.076
  H      227.979    -656.994     727.522
  H      229.255    -658.187     727.518
  H      227.899    -658.361     728.606

 6  7  8  9  10  11  12  13  14  15  16  26  31  32  33  34  35 0
 6-311+G(2d,p)
 ****
 36  37 0
 6-311+G(2d,p)
 ****
 1  2  3  4  5  17  18  19  20  21  22  23  24  25 0
 3-21G
 ****
 27  28  29  30  38  39  40  41  42  43  44  45 0
 3-21G
 ****


