%nproc=1
%NoSave
%Mem=1900MB
#P OB98/GEN NMR

erre ene a

0 1
  C     2565.377    -754.959     685.573
  O     2565.843    -755.349     686.839
  H     2564.754    -754.066     685.694
  H     2564.767    -755.744     685.128
  H     2566.207    -754.709     684.917
  P     2566.760    -756.658     686.962
  C     2568.496    -755.500     688.464
  O     2568.253    -756.119     687.200
  C     2569.152    -754.140     688.305
  O     2568.276    -753.265     687.552
  C     2569.468    -753.442     689.634
  O     2570.807    -752.933     689.600
  C     2568.472    -752.292     689.677
  O     2568.920    -751.213     690.500
  C     2568.341    -751.969     688.180
  N     2567.156    -751.154     687.912
  C     2567.413    -749.862     687.421
  O     2568.575    -749.472     687.234
  N     2566.353    -749.023     687.191
  C     2565.157    -749.429     687.482
  N     2564.144    -748.541     687.253
  C     2564.856    -750.763     688.015
  C     2565.888    -751.575     688.204
  O     2566.614    -757.638     685.835
  O     2566.386    -757.299     688.387
  H     2568.410    -750.398     690.262
  H     2566.631    -758.252     688.383
  H     2563.825    -751.051     688.241
  H     2565.760    -752.583     688.590
  H     2569.238    -751.449     687.799
  H     2567.522    -752.642     690.073
  H     2569.362    -754.096     690.501
  H     2570.059    -754.265     687.695
  H     2564.409    -747.621     686.889
  H     2569.125    -756.177     689.067
  H     2563.182    -748.721     687.460
  H     2567.520    -755.387     688.968
  P     2571.961    -753.963     690.036
  C     2573.829    -753.590     688.265
  O     2572.744    -754.391     688.714
  O     2571.148    -755.270     690.472
  O     2572.827    -753.440     691.149
  H     2571.224    -755.377     691.449
  H     2574.240    -754.014     687.373
  H     2574.583    -753.554     689.023
  H     2573.480    -752.599     688.061

 6  7  8  9  10  11  12  13  14  15  16  26  30  31  32  33  35 0
 6-311+G(2d,p)
 ****
 37  38 0
 6-311+G(2d,p)
 ****
 1  2  3  4  5  17  18  19  20  21  22  23  24  25 0
 3-21G
 ****
 27  28  29  34  36  39  40  41  42  43  44  45  46 0
 3-21G
 ****


