%nproc=1
%NoSave
%Mem=1900MB
#P OB98/GEN NMR

erre ene a

0 1
  C      461.306     315.135     575.748
  O      461.771     313.979     576.419
  H      460.921     314.843     574.770
  H      462.123     315.849     575.612
  H      460.498     315.600     576.327
  P      462.481     314.210     577.841
  C      464.868     313.468     577.096
  O      464.010     314.539     577.446
  C      466.321     313.815     577.447
  O      466.671     315.103     576.910
  C      466.593     313.912     578.947
  O      466.721     312.653     579.577
  C      467.906     314.666     578.917
  O      468.971     313.781     578.510
  C      467.611     315.724     577.825
  N      467.066     316.965     578.384
  C      467.949     317.773     579.096
  O      469.123     317.433     579.275
  N      467.482     318.939     579.665
  C      466.233     319.292     579.497
  N      465.821     320.444     580.073
  C      465.276     318.470     578.726
  C      465.753     317.338     578.205
  O      462.592     312.729     578.447
  O      461.838     315.201     578.741
  H      469.747     314.345     578.343
  H      463.149     312.741     579.259
  H      464.246     318.794     578.619
  H      465.108     316.701     577.618
  H      468.521     315.965     577.263
  H      468.196     315.079     579.882
  H      465.843     314.526     579.458
  H      466.970     313.071     576.962
  H      466.498     320.952     580.643
  H      464.778     313.295     576.010
  H      464.857     320.711     580.125
  H      464.576     312.544     577.629
  P      465.910     312.416     580.940
  C      468.164     312.786     582.206
  O      466.768     313.086     582.116
  O      466.072     310.844     581.208
  O      464.473     312.830     580.888
  H      465.277     310.483     581.629
  H      468.588     313.308     583.038
  H      468.653     313.093     581.305
  H      468.294     311.733     582.342

 6  7  8  9  10  11  12  13  14  15  16  26  30  31  32  33  35 0
 6-311+G(2d,p)
 ****
 37  38 0
 6-311+G(2d,p)
 ****
 1  2  3  4  5  17  18  19  20  21  22  23  24  25 0
 3-21G
 ****
 27  28  29  34  36  39  40  41  42  43  44  45  46 0
 3-21G
 ****


