%nproc=1
%NoSave
%Mem=1900MB
#P OB98/GEN NMR

erre ene a

0 1
  C      203.217     372.955     408.626
  O      201.843     372.995     409.020
  P      201.461     372.574     410.524
  C      200.810     370.106     410.151
  O      201.756     371.008     410.713
  C      200.526     368.944     411.116
  O      199.770     369.413     412.276
  C      199.696     367.831     410.462
  O      200.067     366.549     411.011
  C      198.287     368.138     410.929
  O      197.439     366.992     410.837
  C      198.557     368.637     412.352
  N      193.715     368.584     414.010
  C      194.539     367.590     413.615
  N      195.825     367.679     413.213
  C      196.242     368.953     413.243
  C      195.513     370.070     413.629
  C      194.184     369.847     414.014
  N      193.331     370.870     414.378
  N      196.290     371.210     413.523
  C      197.431     370.803     413.046
  N      197.473     369.443     412.883
  O      200.117     373.017     410.998
  O      202.629     373.250     411.393
  H      196.518     367.301     410.974
  H      202.236     373.643     412.202
  H      194.108     366.594     413.625
  H      198.269     371.444     412.774
  H      198.734     367.812     413.044
  H      197.862     368.934     410.294
  H      199.774     367.785     409.371
  H      201.476     368.556     411.493
  H      201.196     369.715     409.206
  H      192.360     370.637     414.536
  H      193.628     371.829     414.258
  H      199.900     370.655     409.905
  P      201.019     365.647     410.080
  C      199.565     364.174     408.480
  O      200.219     365.403     408.716
  O      201.533     364.421     410.765
  O      202.181     366.684     409.690
  H      201.848     367.538     409.341
  H      198.970     364.263     407.565
  H      198.892     363.925     409.303
  H      200.304     363.382     408.354
  H      203.304     373.261     407.604
  H      203.590     371.958     408.732
  H      203.785     373.616     409.246

 3  4  5  6  7  8  9  10  11  12  22  25  29  30  31  32 0
 6-311+G(2d,p)
 ****
 33  36  37 0
 6-311+G(2d,p)
 ****
 1  2  13  14  15  16  17  18  19  20  21  23  24  26 0
 3-21G
 ****
 27  28  34  35  38  39  40  41  42  43  44  45  46  47  48 0
 3-21G
 ****


