%nproc=1
%NoSave
%Mem=1900MB
#P OB98/GEN NMR

erre ene a

0 1
  C      -64.928     296.358    -153.398
  O      -64.448     295.156    -152.828
  H      -64.126     297.101    -153.373
  H      -65.782     296.744    -152.834
  H      -65.216     296.189    -154.438
  P      -65.512     294.001    -152.492
  C      -65.270     292.979    -154.847
  O      -66.152     293.586    -153.908
  C      -65.874     291.696    -155.424
  O      -67.119     291.977    -156.098
  C      -65.007     291.019    -156.473
  O      -63.798     290.484    -155.984
  C      -66.006     290.097    -157.154
  O      -66.198     288.876    -156.441
  C      -67.297     290.952    -157.103
  N      -67.638     291.523    -158.400
  C      -68.937     291.298    -158.843
  O      -69.766     290.642    -158.211
  N      -69.251     291.828    -160.062
  C      -68.399     292.504    -160.884
  O      -68.736     292.938    -161.981
  C      -67.026     292.678    -160.381
  C      -66.712     292.190    -159.179
  O      -66.528     294.341    -151.442
  O      -64.603     292.738    -152.122
  H      -67.006     288.462    -156.797
  H      -65.132     292.039    -151.663
  H      -70.193     291.689    -160.395
  H      -66.320     293.199    -161.012
  H      -65.706     292.306    -158.783
  H      -68.143     290.337    -156.770
  H      -65.697     289.834    -158.170
  H      -64.721     291.771    -157.219
  H      -66.093     291.021    -154.589
  H      -64.339     292.734    -154.320
  H      -65.047     293.686    -155.652
  P      -62.512     290.228    -156.889
  C      -61.485     292.634    -156.915
  O      -62.135     291.595    -157.639
  O      -62.493     288.963    -157.686
  O      -61.345     290.123    -155.777
  H      -60.691     289.475    -156.106
  H      -61.310     293.466    -157.565
  H      -60.551     292.274    -156.536
  H      -62.105     292.943    -156.100

 6  7  8  9  10  11  12  13  14  15  16  26  31  32  33  34  35 0
 6-311+G(2d,p)
 ****
 36  37 0
 6-311+G(2d,p)
 ****
 1  2  3  4  5  17  18  19  20  21  22  23  24  25 0
 3-21G
 ****
 27  28  29  30  38  39  40  41  42  43  44  45 0
 3-21G
 ****


