%nproc=1
%NoSave
%Mem=1900MB
#P OB98/GEN NMR

erre ene a

0 1
  C     -156.903     150.769     147.784
  O     -156.655     150.654     149.170
  P     -155.817     151.780     149.947
  C     -155.462     149.987     151.768
  O     -154.847     150.976     150.946
  C     -154.553     148.769     151.923
  O     -154.491     148.022     150.692
  C     -153.113     149.109     152.278
  O     -153.002     149.446     153.646
  C     -152.401     147.822     151.880
  O     -152.499     146.832     152.916
  C     -153.196     147.384     150.631
  N     -152.499     147.694     149.390
  C     -151.436     146.845     149.058
  O     -151.118     145.920     149.810
  N     -150.729     147.095     147.905
  C     -151.042     148.114     147.169
  N     -150.298     148.315     146.045
  C     -152.135     149.052     147.500
  C     -152.811     148.786     148.613
  O     -156.631     152.862     150.574
  O     -154.804     152.316     148.825
  H     -152.097     146.016     152.553
  H     -155.270     152.887     148.164
  H     -152.351     149.894     146.860
  H     -153.627     149.423     148.934
  H     -153.385     146.302     150.657
  H     -151.335     147.982     151.692
  H     -152.759     149.932     151.645
  H     -154.989     148.117     152.693
  H     -149.540     147.668     145.869
  H     -156.399     149.680     151.293
  H     -150.433     149.096     145.422
  H     -155.698     150.422     152.745
  P     -152.040     150.645     154.097
  C     -152.444     149.755     156.469
  O     -151.507     150.317     155.573
  O     -152.594     152.019     153.909
  O     -150.734     150.435     153.189
  H     -150.449     151.300     152.840
  H     -151.903     149.280     157.292
  H     -153.065     149.004     155.972
  H     -153.083     150.546     156.873
  H     -157.473     149.926     147.453
  H     -155.973     150.800     147.257
  H     -157.451     151.668     147.593

 3  4  5  6  7  8  9  10  11  12  13  23  27  28  29  30  32 0
 6-311+G(2d,p)
 ****
 34  35 0
 6-311+G(2d,p)
 ****
 1  2  14  15  16  17  18  19  20  21  22  24  25  26 0
 3-21G
 ****
 31  33  36  37  38  39  40  41  42  43  44  45  46 0
 3-21G
 ****


