%nproc=1
%NoSave
%Mem=1900MB
#P OB98/GEN NMR

erre ene a

0 1
  C       21.665     -95.386      35.141
  O       22.439     -96.363      35.807
  H       22.336     -94.698      34.622
  H       21.069     -94.823      35.865
  H       21.006     -95.859      34.408
  P       21.630     -97.497      36.601
  C       23.791     -98.413      37.737
  O       22.686     -98.672      36.884
  C       24.673     -99.661      37.854
  O       24.026    -100.605      38.757
  C       24.886    -100.392      36.518
  O       26.172    -101.035      36.551
  C       23.797    -101.449      36.567
  O       24.050    -102.461      35.622
  C       23.889    -101.846      38.035
  N       21.274    -106.195      37.546
  C       22.443    -105.781      37.014
  N       23.080    -104.607      37.202
  C       22.397    -103.832      38.060
  C       21.192    -104.114      38.679
  C       20.617    -105.362      38.388
  N       19.414    -105.780      38.908
  N       20.793    -103.053      39.471
  C       21.745    -102.151      39.335
  N       22.733    -102.580      38.495
  O       20.668     -98.112      35.479
  O       20.872     -97.033      37.797
  H       24.932    -102.861      35.762
  H       19.806     -97.658      35.495
  H       22.933    -106.487      36.348
  H       21.764    -101.178      39.808
  H       24.774    -102.459      38.247
  H       22.820    -101.018      36.333
  H       24.828     -99.733      35.648
  H       25.628     -99.384      38.316
  H       23.411     -98.130      38.723
  H       24.381     -97.588      37.326
  H       19.058    -106.678      38.626
  H       18.894    -105.157      39.510
  P       27.330    -100.516      35.566
  C       28.345    -102.886      35.163
  O       28.563    -101.542      35.561
  O       27.929     -99.273      36.383
  O       26.871    -100.070      34.216
  H       28.044     -98.511      35.785
  H       29.266    -103.428      35.218
  H       27.979    -102.905      34.158
  H       27.626    -103.338      35.813

 6  7  8  9  10  11  12  13  14  15  25  28  32  33  34  35 0
 6-311+G(2d,p)
 ****
 36  37  40 0
 6-311+G(2d,p)
 ****
 1  2  3  4  5  16  17  18  19  20  21  22  23  24 0
 3-21G
 ****
 26  27  29  30  31  38  39 41  42  43  44  45  46  47  48 0
 3-21G
 ****


