%nproc=1
%NoSave
%Mem=1900MB
#P OB98/GEN NMR

erre ene a

0 1
  C     -563.870    1087.650    -890.730
  O     -563.306    1088.225    -891.890
  P     -562.087    1089.284    -891.780
  C     -560.178    1087.630    -892.330
  O     -560.919    1088.740    -892.790
  C     -559.038    1087.355    -893.300
  O     -559.512    1086.976    -894.620
  C     -558.141    1088.588    -893.590
  O     -557.388    1089.098    -892.520
  C     -557.391    1088.130    -894.830
  O     -556.274    1087.290    -894.480
  C     -558.478    1087.287    -895.580
  N     -559.003    1088.028    -896.730
  C     -558.848    1087.412    -897.950
  O     -558.250    1086.355    -898.140
  N     -559.332    1088.140    -899.050
  C     -559.887    1089.382    -898.980
  O     -560.263    1089.964    -900.000
  C     -560.050    1089.946    -897.640
  C     -559.621    1089.292    -896.590
  O     -561.629    1089.545    -890.400
  O     -562.660    1090.587    -892.560
  H     -555.871    1086.965    -895.290
  H     -562.889    1090.408    -893.490
  H     -559.179    1087.750    -899.950
  H     -560.526    1090.923    -897.580
  H     -559.708    1089.686    -895.580
  H     -558.066    1086.342    -895.920
  H     -556.977    1088.952    -895.400
  H     -558.806    1089.402    -893.910
  H     -558.415    1086.524    -892.910
  H     -560.805    1086.771    -892.260
  H     -559.794    1087.847    -891.330
  P     -556.407    1090.376    -892.660
  C     -558.349    1092.137    -892.580
  O     -557.117    1091.615    -891.990
  O     -555.733    1090.579    -893.970
  O     -555.277    1090.016    -891.540
  H     -554.405    1090.354    -891.850
  H     -558.633    1093.020    -892.040
  H     -559.114    1091.376    -892.540
  H     -558.136    1092.415    -893.610
  H     -564.657    1086.981    -891.010
  H     -564.265    1088.423    -890.104
  H     -563.116    1087.110    -890.197

 3  4  5  6  7  8  9  10  11  12  13  23  28  29  30  31  32 0
 6-311+G(2d,p)
 ****
 33  34 0
 6-311+G(2d,p)
 ****
 1  2  14  15  16  17  18  19  20  21  22  24  25  26  27 0
 3-21G
 ****
 35  36  37  38  39  40  41  42  43  44  45 0
 3-21G
 ****


