%nproc=1
%NoSave
%Mem=1900MB
#P OB98/GEN NMR

erre ene a

0 1
  C      606.147    -230.232    -122.645
  O      607.182    -230.130    -123.616
  P      608.712    -230.521    -123.289
  C      608.693    -232.398    -125.059
  O      609.355    -231.227    -124.578
  C      608.845    -232.562    -126.574
  O      608.034    -231.599    -127.278
  C      610.275    -232.349    -127.089
  O      611.069    -233.494    -126.851
  C      610.016    -232.032    -128.558
  O      609.803    -233.247    -129.305
  C      608.718    -231.226    -128.481
  N      608.963    -227.077    -131.483
  C      608.683    -228.372    -131.744
  N      608.635    -229.416    -130.904
  C      608.903    -229.020    -129.641
  C      609.210    -227.736    -129.219
  C      609.237    -226.740    -130.196
  N      609.539    -225.422    -129.931
  N      609.450    -227.715    -127.858
  C      609.271    -228.965    -127.461
  N      608.927    -229.785    -128.511
  O      608.885    -231.300    -122.015
  O      609.483    -229.119    -123.205
  H      609.876    -233.026    -130.247
  H      610.251    -229.204    -122.602
  H      608.460    -228.609    -132.792
  H      609.363    -229.307    -126.445
  H      608.034    -231.457    -129.321
  H      610.844    -231.498    -129.029
  H      610.728    -231.471    -126.601
  H      608.485    -233.561    -126.846
  H      607.633    -232.326    -124.808
  H      609.573    -224.769    -130.698
  H      609.797    -225.159    -128.982
  H      609.118    -233.268    -124.546
  P      612.654    -233.435    -127.057
  C      613.206    -233.638    -124.552
  O      613.315    -234.245    -125.833
  O      613.223    -232.078    -127.312
  O      612.911    -234.418    -128.300
  H      613.701    -234.106    -128.789
  H      613.954    -232.854    -124.459
  H      613.379    -234.405    -123.789
  H      612.205    -233.215    -124.417
  H      605.219    -229.922    -123.079
  H      606.378    -229.603    -121.810
  H      606.066    -231.247    -122.316

 3  4  5  6  7  8  9  10  11  12  22  25  29  30  31  32 0
 6-311+G(2d,p)
 ****
 33  36  37 0
 6-311+G(2d,p)
 ****
 1  2  13  14  15  16  17  18  19  20  21  23  24  26 0
 3-21G
 ****
 27  28  34  35  38  39  40  41  42  43  44  45  46  47  48 0
 3-21G
 ****


