%nproc=1
%NoSave
%Mem=1900MB
#P OB98/GEN NMR

erre ene a

0 1
  C      249.449    -283.816     213.309
  O      248.460    -282.814     213.421
  P      247.952    -282.083     212.089
  C      245.382    -282.197     212.491
  O      246.547    -281.384     212.419
  C      244.260    -281.454     213.237
  O      244.658    -281.291     214.641
  C      243.940    -280.056     212.689
  O      242.535    -279.838     212.871
  C      244.721    -279.149     213.608
  O      244.271    -277.810     213.594
  C      244.523    -279.885     214.945
  N      245.474    -279.465     215.977
  C      245.088    -279.619     217.309
  O      244.009    -280.095     217.658
  N      245.976    -279.162     218.237
  C      247.131    -278.482     217.988
  O      247.821    -277.986     218.876
  C      247.491    -278.331     216.565
  C      246.661    -278.819     215.640
  O      247.550    -283.302     211.128
  O      248.955    -281.182     211.456
  H      244.334    -277.484     212.677
  H      248.263    -283.476     210.479
  H      245.717    -279.277     219.210
  H      248.412    -277.824     216.332
  H      246.884    -278.712     214.578
  H      243.504    -279.723     215.309
  H      245.778    -279.147     213.306
  H      244.218    -279.940     211.626
  H      243.365    -282.092     213.238
  H      245.617    -283.123     213.012
  H      245.051    -282.465     211.477
  P      241.633    -279.625     211.551
  C      239.466    -279.802     213.009
  O      240.215    -279.080     212.056
  O      241.332    -281.149     211.143
  O      242.310    -278.831     210.475
  H      241.105    -281.705     211.916
  H      240.116    -280.304     213.735
  H      238.847    -280.548     212.506
  H      238.810    -279.103     213.556
  H      249.677    -284.202     214.280
  H      250.333    -283.398     212.875
  H      249.086    -284.607     212.687

 3  4  5  6  7  8  9  10  11  12  13  23  28  29  30  31  32 0
 6-311+G(2d,p)
 ****
 33  34 0
 6-311+G(2d,p)
 ****
 1  2  14  15  16  17  18  19  20  21  22  24  25  26 0
 3-21G
 ****
 27  35  36  37  38  39  40  41  42  43  44  45 0
 3-21G
 ****


