%nproc=1
%NoSave
%Mem=1900MB
#P OB98/GEN NMR

erre ene a

0 1
  C     -895.120     697.768     230.640
  O     -896.530     697.924     230.724
  P     -897.420     696.591     230.756
  C     -899.000     695.691     228.909
  O     -897.700     696.139     229.239
  C     -898.970     694.876     227.606
  O     -898.560     695.712     226.510
  C     -898.010     693.678     227.661
  O     -898.540     692.593     226.875
  C     -896.780     694.183     226.936
  O     -895.990     693.114     226.411
  C     -897.420     695.094     225.877
  N     -894.330     696.253     222.044
  C     -895.320     695.294     222.114
  N     -895.430     694.462     221.044
  N     -896.130     695.147     223.144
  C     -895.880     696.031     224.140
  C     -894.930     697.039     224.176
  C     -894.050     697.174     223.050
  O     -893.130     697.986     222.929
  N     -895.020     697.744     225.338
  C     -895.980     697.151     226.040
  N     -896.510     696.082     225.352
  O     -898.860     697.157     231.242
  O     -896.930     695.522     231.682
  H     -895.450     693.478     225.683
  H     -899.010     696.899     232.180
  H     -893.730     696.317     221.240
  H     -896.300     697.443     227.031
  H     -897.810     694.509     225.030
  H     -896.150     694.760     227.625
  H     -894.820     694.483     220.238
  H     -897.780     693.312     228.664
  H     -896.130     693.721     221.082
  H     -900.000     694.534     227.392
  H     -899.650     696.548     228.768
  H     -899.400     695.083     229.720
  P     -898.400     691.123     227.492
  C     -896.240     689.688     227.840
  O     -896.830     690.964     227.878
  O     -898.580     690.166     226.221
  O     -899.360     690.828     228.588
  H     -898.910     689.286     226.517
  H     -895.470     689.677     227.075
  H     -896.980     688.890     227.617
  H     -895.790     689.484     228.814
  H     -894.655     698.731     230.627
  H     -894.872     697.240     229.743
  H     -894.771     697.215     231.487

 3  4  5  6  7  8  9  10  11  12  23  26  30  31 0
 6-311+G(2d,p)
 ****
 33  35  36  37  38 0
 6-311+G(2d,p)
 ****
 1  2  13  14  15  16  17  18  19  20  21  22  24  25 0
 3-21G
 ****
 27  28  29  32  34  39  40  41  42  43  44  45  46  47  48  49 0
 3-21G
 ****


