%nproc=1
%NoSave
%Mem=1900MB
#P OB98/GEN NMR

erre ene a

0 1
  C      226.632    -595.999    -414.875
  O      226.900    -596.179    -416.249
  H      227.250    -596.698    -414.304
  H      225.580    -596.204    -414.655
  H      226.886    -594.981    -414.568
  P      226.030    -595.347    -417.310
  C      227.408    -593.183    -416.951
  O      226.149    -593.824    -416.811
  C      227.215    -591.701    -417.262
  O      226.403    -591.521    -418.441
  C      226.500    -590.905    -416.175
  O      227.312    -590.643    -415.042
  C      226.161    -589.643    -416.952
  O      227.342    -588.834    -417.095
  C      225.729    -590.239    -418.316
  N      224.281    -590.406    -418.430
  C      223.528    -589.240    -418.618
  O      224.078    -588.142    -418.680
  N      222.160    -589.342    -418.696
  C      221.593    -590.503    -418.575
  N      220.231    -590.541    -418.611
  C      222.349    -591.755    -418.392
  C      223.672    -591.637    -418.325
  O      224.637    -595.834    -417.550
  O      226.931    -595.324    -418.632
  H      227.066    -587.995    -417.501
  H      226.429    -594.828    -419.325
  H      221.825    -592.696    -418.289
  H      224.296    -592.511    -418.173
  H      226.078    -589.608    -419.141
  H      225.402    -589.027    -416.464
  H      225.567    -591.395    -415.881
  H      228.203    -591.278    -417.486
  H      219.746    -589.657    -418.693
  H      227.958    -593.684    -417.752
  H      219.718    -591.340    -418.253
  H      227.978    -593.267    -416.021
  P      226.606    -590.630    -413.599
  C      227.931    -592.405    -412.229
  O      226.774    -592.106    -412.991
  O      225.052    -590.546    -413.965
  O      227.039    -589.536    -412.675
  H      224.741    -589.618    -413.964
  H      227.888    -593.422    -411.900
  H      227.975    -591.757    -411.379
  H      228.803    -592.262    -412.833

 6  7  8  9  10  11  12  13  14  15  16  26  30  31  32  33  35 0
 6-311+G(2d,p)
 ****
 37  38 0
 6-311+G(2d,p)
 ****
 1  2  3  4  5  17  18  19  20  21  22  23  24  25 0
 3-21G
 ****
 27  28  29  34  36  39  40  41  42  43  44  45  46 0
 3-21G
 ****


