%nproc=1
%NoSave
%Mem=1900MB
#P OB98/GEN NMR

erre ene a

0 1
  C      364.854     -86.927      57.610
  O      364.022     -87.461      58.618
  H      364.853     -87.611      56.756
  H      365.877     -86.834      57.984
  H      364.486     -85.951      57.281
  P      363.723     -86.515      59.881
  C      365.780     -87.424      61.179
  O      365.125     -86.288      60.626
  C      367.236     -87.091      61.491
  O      367.951     -86.776      60.275
  C      367.424     -85.896      62.418
  O      367.276     -86.256      63.785
  C      368.863     -85.519      62.103
  O      369.762     -86.433      62.766
  C      368.920     -85.731      60.583
  N      370.449     -81.079      59.279
  C      371.042     -82.003      60.118
  N      372.204     -81.637      60.701
  N      370.539     -83.186      60.368
  C      369.368     -83.412      59.727
  C      368.684     -82.576      58.874
  C      369.255     -81.277      58.598
  O      368.787     -80.426      57.846
  N      367.537     -83.161      58.407
  C      367.510     -84.338      58.991
  N      368.597     -84.543      59.811
  O      362.923     -87.477      60.886
  O      362.943     -85.277      59.583
  H      369.507     -86.444      63.710
  H      362.247     -86.948      61.353
  H      370.876     -80.177      59.132
  H      366.738     -85.083      58.859
  H      369.900     -86.077      60.246
  H      369.122     -84.516      62.442
  H      372.623     -80.723      60.591
  H      366.762     -85.065      62.143
  H      372.675     -82.313      61.293
  H      367.702     -87.989      61.919
  H      365.741     -88.247      60.460
  H      365.256     -87.722      62.093
  P      366.480     -85.238      64.742
  C      368.783     -84.420      65.631
  O      367.516     -84.060      65.076
  O      366.378     -86.044      66.122
  O      365.141     -84.813      64.238
  H      365.631     -85.707      66.648
  H      369.363     -83.536      65.800
  H      369.301     -85.062      64.950
  H      368.634     -84.931      66.559

 6  7  8  9  10  11  12  13  14  15  26  29  33  34 0
 6-311+G(2d,p)
 ****
 36  38  39  40  41 0
 6-311+G(2d,p)
 ****
 1  2  3  4  5  16  17  18  19  20  21  22  23  24  25 0
 3-21G
 ****
 27  28  30  31  32  35  37  42  43  44  45  46  47 0
 3-21G
 ****
 48  49 0
 3-21G
 ****


