%nproc=1
%NoSave
%Mem=1900MB
#P OB98/GEN NMR

erre ene a

0 1
  C      -26.103     188.454     316.048
  O      -26.017     188.833     314.689
  P      -27.339     188.924     313.789
  C      -27.210     191.490     313.688
  O      -28.011     190.362     314.025
  C      -28.079     192.615     313.129
  O      -28.567     192.281     311.811
  C      -29.325     192.900     313.950
  O      -29.025     193.566     315.163
  C      -30.151     193.712     312.959
  O      -29.713     195.080     312.932
  C      -29.806     193.012     311.625
  N      -30.875     192.141     311.166
  C      -31.929     192.767     310.485
  O      -31.959     193.989     310.375
  N      -32.923     191.980     309.957
  C      -32.934     190.704     310.194
  N      -33.907     189.969     309.593
  C      -31.926     190.029     311.042
  C      -30.924     190.800     311.471
  O      -28.276     187.767     313.915
  O      -26.781     189.039     312.290
  H      -27.239     188.377     311.734
  H      -28.771     195.068     312.678
  H      -32.016     188.978     311.263
  H      -30.125     190.387     312.084
  H      -29.599     193.758     310.850
  H      -31.214     193.716     313.205
  H      -29.848     191.959     314.172
  H      -27.460     193.519     313.052
  H      -34.567     190.460     309.007
  H      -26.475     191.185     312.935
  H      -33.822     188.967     309.442
  H      -26.669     191.827     314.580
  P      -30.231     193.765     316.205
  C      -29.834     192.168     318.203
  O      -30.459     192.365     316.949
  O      -31.515     193.907     315.254
  O      -30.091     194.951     317.101
  H      -32.139     194.549     315.640
  H      -30.349     191.353     318.725
  H      -29.880     193.066     318.822
  H      -28.789     191.879     318.048
  H      -25.124     188.450     316.480
  H      -26.528     187.475     316.119
  H      -26.722     189.150     316.574

 3  4  5  6  7  8  9  10  11  12  13  24  27  28  29  30  32 0
 6-311+G(2d,p)
 ****
 34  35 0
 6-311+G(2d,p)
 ****
 1  2  14  15  16  17  18  19  20  21  22  23  25  26 0
 3-21G
 ****
 31  33  36  37  38  39  40  41  42  43  44  45  46 0
 3-21G
 ****


