%nproc=1
%NoSave
%Mem=1900MB
#P OB98/GEN NMR

erre ene a

0 1
  C       62.921     -34.604      54.905
  O       61.749     -33.905      54.530
  H       63.250     -34.237      55.881
  H       63.715     -34.425      54.176
  H       62.713     -35.674      54.981
  P       61.090     -34.318      53.125
  C       62.652     -32.619      51.950
  O       62.221     -33.971      52.042
  C       64.076     -32.548      51.402
  O       65.004     -33.144      52.325
  C       64.276     -33.280      50.080
  O       63.834     -32.488      48.990
  C       65.788     -33.450      50.076
  O       66.415     -32.220      49.662
  C       66.098     -33.720      51.560
  N       69.104     -37.219      53.817
  C       69.325     -35.930      53.477
  N       68.497     -35.074      52.841
  C       67.327     -35.668      52.552
  C       66.958     -36.975      52.838
  C       67.905     -37.765      53.511
  N       67.670     -39.077      53.866
  N       65.680     -37.232      52.386
  C       65.266     -36.084      51.886
  N       66.239     -35.116      51.929
  O       59.730     -33.769      52.863
  O       61.174     -35.916      53.208
  H       67.375     -32.315      49.812
  H       62.009     -36.193      53.624
  H       70.298     -35.533      53.752
  H       64.271     -35.898      51.498
  H       67.020     -33.220      51.880
  H       66.119     -34.225      49.382
  H       63.805     -34.269      50.094
  H       64.346     -31.488      51.308
  H       62.607     -32.137      52.932
  H       68.457     -39.619      54.189
  H       66.827     -39.517      53.527
  H       61.962     -32.100      51.278
  P       63.079     -33.160      47.744
  C       65.406     -33.668      46.776
  O       64.118     -34.191      47.083
  O       62.465     -32.198      46.787
  O       61.987     -34.121      48.407
  H       61.160     -34.104      47.887
  H       66.010     -34.438      46.343
  H       65.870     -33.313      47.672
  H       65.307     -32.860      46.082

 6  7  8  9  10  11  12  13  14  15  25  28  32  33  34  35 0
 6-311+G(2d,p)
 ****
 36  39  40 0
 6-311+G(2d,p)
 ****
 1  2  3  4  5  16  17  18  19  20  21  22  23  24 0
 3-21G
 ****
 26  27  29  30  31  37  38  41  42  43  44  45  46  47 0
 3-21G
 ****
 48 0
 3-21G
 ****


