%nproc=1
%NoSave
%Mem=1900MB
#P OB98/GEN NMR

erre ene a

0 1
  C     -204.458     711.951    -361.302
  O     -204.556     713.286    -360.821
  P     -205.929     714.117    -360.909
  C     -205.189     715.267    -358.719
  O     -205.684     715.438    -360.033
  C     -205.424     716.541    -357.889
  O     -204.504     717.564    -358.348
  C     -206.845     717.110    -357.994
  O     -207.179     717.666    -356.715
  C     -206.698     718.195    -359.034
  O     -207.722     719.174    -358.957
  C     -205.292     718.722    -358.708
  N     -204.680     719.437    -359.834
  C     -204.615     720.824    -359.746
  O     -205.063     721.430    -358.767
  N     -204.017     721.521    -360.767
  C     -203.609     720.881    -361.827
  N     -202.979     721.601    -362.798
  C     -203.764     719.424    -362.000
  C     -204.285     718.777    -360.969
  O     -207.151     713.345    -360.557
  O     -205.938     714.706    -362.393
  H     -208.580     718.740    -359.154
  H     -206.298     714.074    -363.063
  H     -203.435     718.946    -362.915
  H     -204.404     717.701    -360.993
  H     -205.327     719.377    -357.827
  H     -206.734     717.757    -360.042
  H     -207.578     716.347    -358.255
  H     -205.176     716.319    -356.850
  H     -202.743     722.565    -362.567
  H     -204.118     715.067    -358.771
  H     -202.359     721.152    -363.462
  H     -205.674     714.398    -358.246
  P     -208.690     717.534    -356.194
  C     -207.995     717.753    -353.699
  O     -208.784     718.253    -354.761
  O     -208.752     715.976    -355.786
  O     -209.771     717.844    -357.177
  H     -209.676     715.674    -355.843
  H     -208.171     718.363    -352.806
  H     -206.924     717.823    -353.953
  H     -208.256     716.718    -353.477
  H     -203.463     711.588    -361.147
  H     -204.686     711.931    -362.347
  H     -205.151     711.330    -360.774

 3  4  5  6  7  8  9  10  11  12  13  23  27  28  29  30  32 0
 6-311+G(2d,p)
 ****
 34  35 0
 6-311+G(2d,p)
 ****
 1  2  14  15  16  17  18  19  20  21  22  24  25  26 0
 3-21G
 ****
 31  33  36  37  38  39  40  41  42  43  44  45  46 0
 3-21G
 ****


