%nproc=1
%NoSave
%Mem=1900MB
#P OB98/GEN NMR

erre ene a

0 1
  C     -270.392     -51.693     -82.842
  O     -269.503     -52.770     -82.585
  P     -268.458     -53.165     -83.736
  C     -269.259     -55.625     -83.776
  O     -268.171     -54.737     -83.569
  C     -269.547     -56.445     -82.524
  O     -270.643     -57.360     -82.798
  C     -268.355     -57.282     -82.033
  O     -268.260     -57.174     -80.603
  C     -268.767     -58.709     -82.362
  O     -268.126     -59.655     -81.514
  C     -270.279     -58.611     -82.178
  N     -272.117     -63.235     -81.312
  C     -271.619     -62.304     -80.422
  N     -271.548     -62.682     -79.128
  N     -271.223     -61.108     -80.768
  C     -271.375     -60.853     -82.093
  C     -271.867     -61.693     -83.068
  C     -272.246     -63.029     -82.683
  O     -272.612     -63.934     -83.437
  N     -271.885     -61.068     -84.290
  C     -271.405     -59.864     -84.059
  N     -271.040     -59.698     -82.747
  O     -267.101     -52.475     -83.239
  O     -268.823     -52.716     -85.110
  H     -268.186     -60.526     -81.958
  H     -266.760     -51.881     -83.935
  H     -272.394     -64.149     -80.992
  H     -271.283     -59.089     -84.811
  H     -270.534     -58.547     -81.109
  H     -268.497     -58.928     -83.399
  H     -271.876     -63.572     -78.784
  H     -267.394     -57.013     -82.488
  H     -271.209     -62.006     -78.458
  H     -269.892     -55.762     -81.734
  H     -269.018     -56.303     -84.604
  H     -270.147     -55.040     -84.055
  P     -266.859     -56.632     -80.033
  C     -266.384     -58.964     -78.980
  O     -266.503     -57.569     -78.785
  O     -267.251     -55.234     -79.363
  O     -265.797     -56.491     -81.073
  H     -266.476     -54.641     -79.327
  H     -266.399     -59.238     -80.041
  H     -267.217     -59.466     -78.475
  H     -265.445     -59.308     -78.539
  H     -271.026     -51.544     -81.993
  H     -270.991     -51.922     -83.699
  H     -269.829     -50.802     -83.028

 3  4  5  6  7  8  9  10  11  12  23  26  30  31  33  0
 6-311+G(2d,p)
 ****
 35  36  37  38 0
 6-311+G(2d,p)
 ****
 1  2  13  14  15  16  17  18  19  20  21  22  24  25  27  28  29 0
 3-21G
 ****
 32  34  39  40  41  42  43  44  45  46  47  48  49 0
 3-21G
 ****


