%nproc=1
%NoSave
%Mem=1900MB
#P OB98/GEN NMR

erre ene a

0 1
  C     -260.112    -373.372      58.660
  O     -261.133    -372.396      58.415
  P     -261.434    -371.181      59.411
  C     -263.520    -372.273      60.460
  O     -262.227    -371.717      60.700
  C     -264.133    -372.837      61.748
  O     -263.394    -373.991      62.201
  C     -264.136    -371.880      62.936
  O     -265.159    -370.895      62.797
  C     -264.340    -372.837      64.099
  O     -265.725    -373.175      64.258
  C     -263.522    -374.069      63.636
  N     -262.224    -374.161      64.286
  C     -262.230    -374.415      65.664
  O     -263.292    -374.500      66.270
  N     -261.025    -374.546      66.310
  C     -259.919    -374.358      65.666
  N     -258.751    -374.508      66.362
  C     -259.862    -373.994      64.230
  C     -261.043    -373.910      63.617
  O     -262.074    -370.000      58.758
  O     -259.995    -370.773      60.010
  H     -266.180    -372.351      64.545
  H     -259.987    -369.808      60.208
  H     -258.923    -373.819      63.732
  H     -261.107    -373.654      62.559
  H     -264.084    -374.994      63.831
  H     -263.995    -372.427      65.057
  H     -263.158    -371.392      63.024
  H     -265.153    -373.169      61.512
  H     -258.818    -374.762      67.332
  H     -263.418    -373.080      59.731
  H     -257.832    -374.383      65.945
  H     -264.166    -371.488      60.044
  P     -264.772    -369.343      62.819
  C     -264.548    -368.756      65.317
  O     -263.859    -369.091      64.117
  O     -265.917    -368.393      62.645
  O     -263.714    -369.190      61.627
  H     -263.799    -368.297      61.238
  H     -263.903    -369.017      66.163
  H     -265.484    -369.324      65.399
  H     -264.763    -367.690      65.317
  H     -260.098    -374.082      57.860
  H     -260.315    -373.877      59.582
  H     -259.161    -372.886      58.721

 3  4  5  6  7  8  9  10  11  12  13  23  27  28  29  30  32 0
 6-311+G(2d,p)
 ****
 34  35 0
 6-311+G(2d,p)
 ****
 1  2  14  15  16  17  18  19  20  21  22  24  25  26 0
 3-21G
 ****
 31  33  36  37  38  39  40  41  42  43  44  45  46 0
 3-21G
 ****


