%nproc=1
%NoSave
%Mem=1900MB
#P OB98/GEN NMR

erre ene a

0 1
  C     -476.040    -136.480     109.402
  O     -476.351    -136.886     110.718
  H     -476.887    -135.934     108.992
  H     -475.847    -137.358     108.779
  H     -475.162    -135.826     109.399
  P     -475.187    -137.611     111.554
  C     -475.216    -140.091     110.749
  O     -474.638    -138.802     110.623
  C     -474.515    -141.072     109.799
  O     -473.097    -141.093     110.116
  C     -475.034    -142.508     109.919
  O     -475.038    -143.114     108.617
  C     -473.996    -143.187     110.800
  O     -473.948    -144.601     110.645
  C     -472.722    -142.470     110.339
  N     -471.638    -142.563     111.326
  C     -470.652    -143.520     111.106
  O     -470.583    -144.243     110.111
  N     -469.710    -143.633     112.101
  C     -469.680    -142.929     113.268
  O     -468.826    -143.090     114.124
  C     -470.756    -141.933     113.449
  C     -471.669    -141.802     112.483
  O     -475.991    -138.389     112.702
  O     -474.127    -136.715     112.103
  H     -476.087    -137.831     113.495
  H     -473.893    -144.793     109.682
  H     -468.982    -144.327     111.959
  H     -470.765    -141.358     114.362
  H     -472.485    -141.087     112.594
  H     -472.380    -142.877     109.378
  H     -474.203    -142.968     111.859
  H     -476.043    -142.565     110.353
  H     -474.611    -140.698     108.774
  H     -476.272    -140.042     110.497
  H     -475.112    -140.431     111.785
  P     -476.462    -143.270     107.885
  C     -476.832    -145.675     108.849
  O     -477.296    -144.334     108.749
  O     -476.049    -144.064     106.560
  O     -477.139    -141.953     107.648
  H     -475.346    -144.725     106.705
  H     -477.505    -146.241     109.458
  H     -475.858    -145.683     109.291
  H     -476.784    -146.110     107.872

 6  7  8  9  10  11  12  13  14  15  16  27  31  32  33  34  35 0
 6-311+G(2d,p)
 ****
 36  37 0
 6-311+G(2d,p)
 ****
 1  2  3  4  5  17  18  19  20  21  22  23  24  25 0
 3-21G
 ****
 26  28  29  30  38  39  40  41  42  43  44  45 0
 3-21G
 ****


