%nproc=1
%NoSave
%Mem=1900MB
#P OB98/GEN NMR

erre ene a

0 1
  C      267.792      63.873     226.482
  O      267.538      64.614     225.304
  H      268.794      63.444     226.417
  H      267.068      63.057     226.577
  H      267.745      64.518     227.366
  P      266.206      65.500     225.221
  C      263.663      65.043     225.218
  O      264.968      64.481     225.260
  C      262.622      64.033     225.720
  O      262.590      62.901     224.792
  C      262.917      63.461     227.121
  O      261.653      63.151     227.727
  C      263.681      62.197     226.760
  O      263.846      61.330     227.854
  C      262.821      61.712     225.583
  N      263.411      60.658     224.765
  C      262.949      59.357     224.954
  O      262.070      59.035     225.760
  N      263.539      58.396     224.170
  C      264.508      58.608     223.231
  O      264.977      57.712     222.539
  C      264.960      60.000     223.086
  C      264.399      60.949     223.839
  O      266.164      66.508     224.120
  O      266.131      66.202     226.662
  H      266.438      67.127     226.592
  H      262.964      61.131     228.237
  H      263.213      57.450     224.290
  H      265.735      60.202     222.355
  H      264.703      61.986     223.747
  H      261.842      61.377     225.950
  H      264.691      62.451     226.425
  H      263.469      64.154     227.764
  H      261.633      64.499     225.684
  H      263.443      65.317     224.179
  H      263.640      65.945     225.840
  P      260.805      64.207     228.592
  C      261.329      65.903     230.483
  O      261.840      65.147     229.391
  O      259.765      63.580     229.467
  O      260.140      65.197     227.519
  H      259.322      65.575     227.892
  H      262.119      66.478     230.919
  H      260.923      65.239     231.218
  H      260.561      66.560     230.133

 6  7  8  9  10  11  12  13  14  15  16  27  31  32  33  34  35 0
 6-311+G(2d,p)
 ****
 36  37 0
 6-311+G(2d,p)
 ****
 1  2  3  4  5  17  18  19  20  21  22  23  24  25 0
 3-21G
 ****
 26  28  29  30  38  39  40  41  42  43  44  45 0
 3-21G
 ****


