%nproc=1
%NoSave
%Mem=1900MB
#P OB98/GEN NMR

erre ene a

0 1
  C     -137.747     -98.340    -207.541
  O     -136.464     -97.908    -207.115
  P     -136.089     -98.096    -205.567
  C     -138.282     -97.123    -204.602
  O     -136.881     -96.953    -204.764
  C     -138.941     -95.819    -204.169
  O     -140.381     -96.020    -204.098
  C     -138.480     -95.303    -202.796
  O     -138.267     -93.886    -202.872
  C     -139.686     -95.541    -201.905
  O     -139.710     -94.653    -200.793
  C     -140.819     -95.335    -202.909
  N     -145.805     -94.888    -203.579
  C     -144.765     -94.430    -204.363
  N     -145.105     -93.699    -205.448
  N     -143.504     -94.661    -204.106
  C     -143.312     -95.430    -203.006
  C     -144.261     -95.951    -202.156
  C     -145.648     -95.637    -202.419
  O     -146.609     -95.938    -201.714
  N     -143.681     -96.696    -201.161
  C     -142.387     -96.622    -201.403
  N     -142.111     -95.826    -202.485
  O     -134.563     -97.617    -205.509
  O     -136.241     -99.482    -205.039
  H     -138.908     -94.831    -200.265
  H     -134.008     -98.328    -205.134
  H     -146.755     -94.667    -203.814
  H     -141.618     -97.100    -200.808
  H     -140.930     -94.268    -203.149
  H     -139.659     -96.569    -201.529
  H     -146.056     -93.516    -205.725
  H     -137.578     -95.792    -202.413
  H     -144.357     -93.375    -206.048
  H     -138.764     -95.064    -204.946
  H     -138.466     -97.888    -203.842
  H     -138.709     -97.463    -205.552
  P     -136.850     -93.359    -202.328
  C     -137.793     -92.607    -200.020
  O     -137.193     -92.232    -201.243
  O     -136.263     -92.533    -203.566
  O     -135.932     -94.446    -201.877
  H     -135.290     -92.492    -203.519
  H     -137.814     -93.693    -199.886
  H     -138.820     -92.231    -199.998
  H     -137.233     -92.161    -199.197
  H     -137.856     -98.153    -208.589
  H     -138.501     -97.804    -207.003
  H     -137.851     -99.388    -207.352

 3  4  5  6  7  8  9  10  11  12  23  26  30  31  33  0
 6-311+G(2d,p)
 ****
 35  36  37  38 0
 6-311+G(2d,p)
 ****
 1  2  13  14  15  16  17  18  19  20  21  22  24  25  27  28  29 0
 3-21G
 ****
 32  34  39  40  41  42  43  44  45  46  47  48  49 0
 3-21G
 ****


