%nproc=1
%NoSave
%Mem=1900MB
#P OB98/GEN NMR

erre ene a

0 1
  C     -152.844      85.585    -378.887
  O     -153.494      84.694    -379.772
  P     -152.649      83.871    -380.856
  C     -154.105      81.761    -380.676
  O     -152.798      82.308    -380.529
  C     -154.228      80.456    -379.898
  O     -154.148      80.694    -378.474
  C     -155.550      79.730    -380.102
  O     -155.636      79.127    -381.377
  C     -155.539      78.763    -378.925
  O     -154.733      77.612    -379.222
  C     -154.870      79.617    -377.827
  N     -155.829      80.127    -376.858
  C     -156.287      79.211    -375.905
  O     -155.943      78.029    -375.960
  N     -157.128      79.658    -374.917
  C     -157.575      80.876    -374.954
  N     -158.356      81.279    -373.918
  C     -157.242      81.827    -376.035
  C     -156.354      81.395    -376.934
  O     -151.245      84.338    -381.056
  O     -153.497      84.027    -382.207
  H     -152.896      84.317    -382.923
  H     -154.870      76.980    -378.489
  H     -157.693      82.806    -376.058
  H     -156.035      82.032    -377.752
  H     -154.115      79.028    -377.297
  H     -156.540      78.399    -378.674
  H     -156.379      80.442    -379.977
  H     -153.387      79.805    -380.184
  H     -158.550      80.606    -373.187
  H     -154.289      81.577    -381.737
  H     -158.484      82.259    -373.680
  H     -154.845      82.490    -380.321
  P     -156.395      79.952    -382.523
  C     -154.511      79.529    -384.248
  O     -155.284      80.481    -383.548
  O     -156.876      81.280    -381.765
  O     -157.550      79.234    -383.150
  H     -157.749      81.555    -382.108
  H     -154.073      80.008    -385.126
  H     -155.118      78.681    -384.575
  H     -153.702      79.173    -383.601
  H     -153.568      86.038    -378.242
  H     -152.342      86.344    -379.450
  H     -152.130      85.047    -378.299

 3  4  5  6  7  8  9  10  11  12  13  24  27  28  29  30  32 0
 6-311+G(2d,p)
 ****
 34  35 0
 6-311+G(2d,p)
 ****
 1  2  14  15  16  17  18  19  20  21  22  23  25  26 0
 3-21G
 ****
 31  33  36  37  38  39  40  41  42  43  44  45  46 0
 3-21G
 ****


