%nproc=1
%NoSave
%Mem=1900MB
#P OB98/GEN NMR

erre ene a

0 1
  C     -118.265     -10.435    -292.252
  O     -118.445     -11.412    -291.246
  P     -117.386     -12.595    -291.042
  C     -117.036     -14.984    -291.905
  O     -117.732     -13.759    -292.089
  C     -117.969     -16.184    -292.067
  O     -118.828     -16.286    -290.899
  C     -118.868     -16.121    -293.307
  O     -118.970     -17.451    -293.824
  C     -120.199     -15.663    -292.742
  O     -121.289     -16.002    -293.586
  C     -120.187     -16.359    -291.378
  N     -121.116     -15.756    -290.437
  C     -122.370     -16.364    -290.306
  O     -122.691     -17.278    -291.062
  N     -123.223     -15.904    -289.333
  C     -122.926     -14.817    -288.686
  N     -123.766     -14.436    -287.684
  C     -121.724     -14.012    -288.977
  C     -120.848     -14.554    -289.823
  O     -117.220     -13.058    -289.634
  O     -116.012     -11.995    -291.612
  H     -115.316     -12.088    -290.931
  H     -122.126     -15.837    -293.106
  H     -121.587     -13.054    -288.502
  H     -119.923     -14.053    -290.077
  H     -120.434     -17.422    -291.486
  H     -120.194     -14.576    -292.619
  H     -118.470     -15.460    -294.084
  H     -117.353     -17.091    -292.092
  H     -124.561     -15.034    -287.488
  H     -116.618     -14.989    -290.896
  H     -123.468     -13.812    -286.936
  H     -116.200     -15.044    -292.614
  P     -118.971     -17.652    -295.420
  C     -120.665     -17.212    -297.339
  O     -120.458     -17.371    -295.952
  O     -118.870     -19.251    -295.542
  O     -117.848     -17.015    -296.171
  H     -118.474     -19.480    -296.405
  H     -121.713     -16.957    -297.510
  H     -120.440     -18.145    -297.865
  H     -120.039     -16.405    -297.732
  H     -119.077      -9.739    -292.222
  H     -118.238     -10.910    -293.210
  H     -117.344      -9.916    -292.085

 3  4  5  6  7  8  9  10  11  12  13  24  27  28  29  30  32 0
 6-311+G(2d,p)
 ****
 34  35 0
 6-311+G(2d,p)
 ****
 1  2  14  15  16  17  18  19  20  21  22  23  25  26 0
 3-21G
 ****
 31  33  36  37  38  39  40  41  42  43  44  45  46 0
 3-21G
 ****


