%nproc=1
%NoSave
%Mem=1900MB
#P OB98/GEN NMR

erre ene a

0 1
  C      486.277    -499.521     312.133
  O      485.511    -498.586     311.387
  P      486.312    -497.366     310.703
  C      484.473    -497.045     308.865
  O      485.214    -496.478     309.949
  C      483.358    -496.089     308.450
  O      482.220    -496.234     309.337
  C      483.742    -494.617     308.496
  O      484.443    -494.254     307.320
  C      482.376    -493.943     308.624
  O      481.732    -493.853     307.344
  C      481.627    -494.921     309.550
  N      478.904    -493.582     313.599
  C      478.531    -493.696     312.272
  N      477.224    -493.455     311.990
  N      479.356    -494.007     311.308
  C      480.627    -494.195     311.727
  C      481.122    -494.103     313.011
  C      480.191    -493.800     314.076
  O      480.455    -493.790     315.278
  N      482.477    -494.347     313.045
  C      482.779    -494.620     311.792
  N      481.696    -494.568     310.962
  O      487.123    -498.082     309.524
  O      487.198    -496.599     311.634
  H      482.075    -493.074     306.860
  H      488.049    -498.250     309.797
  H      478.220    -493.350     314.299
  H      483.769    -494.891     311.442
  H      480.565    -494.997     309.284
  H      482.446    -492.924     309.018
  H      476.537    -493.185     312.682
  H      484.346    -494.397     309.385
  H      476.931    -493.534     311.025
  H      483.025    -496.375     307.437
  H      484.041    -497.991     309.187
  H      485.157    -497.229     308.027
  P      485.711    -493.275     307.484
  C      486.508    -493.779     305.052
  O      486.131    -492.803     306.012
  O      486.896    -494.271     307.911
  O      485.526    -492.183     308.483
  H      487.486    -493.819     308.550
  H      486.253    -493.409     304.055
  H      485.994    -494.728     305.231
  H      487.588    -493.937     305.116
  H      485.630    -500.275     312.531
  H      486.773    -499.016     312.936
  H      487.005    -499.976     311.494

 3  4  5  6  7  8  9  10  11  12  23  26  30  31 0
 6-311+G(2d,p)
 ****
 33  35  36  37  38 0
 6-311+G(2d,p)
 ****
 1  2  13  14  15  16  17  18  19  20  21  22  24  25 0
 3-21G
 ****
 27  28  29  32  34  39  40  41  42  43  44  45  46  47  48  49 0
 3-21G
 ****


