%nproc=1
%NoSave
%Mem=1900MB
#P OB98/GEN NMR

erre ene a

0 1
  C      737.595     264.214     228.468
  O      737.444     263.508     227.252
  P      737.302     264.310     225.859
  C      735.404     262.659     225.291
  O      735.811     264.033     225.340
  C      734.008     262.502     225.881
  O      733.999     262.904     227.285
  C      732.945     263.373     225.227
  O      732.612     263.103     223.881
  C      731.818     263.302     226.254
  O      731.061     262.091     226.099
  C      732.609     263.282     227.574
  N      732.546     264.569     228.287
  C      731.538     264.698     229.235
  O      730.747     263.792     229.507
  N      731.466     265.909     229.866
  C      732.230     267.006     229.596
  O      732.074     268.078     230.155
  C      733.267     266.819     228.572
  C      733.370     265.628     227.961
  O      738.377     264.043     224.865
  O      737.216     265.841     226.324
  H      730.566     262.176     225.267
  H      736.466     266.045     226.920
  H      730.735     266.023     230.547
  H      733.904     267.680     228.340
  H      734.129     265.464     227.185
  H      732.211     262.511     228.243
  H      731.114     264.143     226.141
  H      733.314     264.416     225.235
  H      733.737     261.440     225.845
  H      736.118     262.065     225.872
  H      735.437     262.296     224.257
  P      732.840     264.148     222.685
  C      730.401     264.965     223.053
  O      731.744     265.314     222.835
  O      733.056     263.589     221.320
  O      734.176     264.899     223.156
  H      734.682     265.173     222.369
  H      729.803     265.887     223.098
  H      730.289     264.441     224.012
  H      730.045     264.323     222.243
  H      737.673     263.518     229.277
  H      736.745     264.846     228.622
  H      738.481     264.812     228.425

 3  4  5  6  7  8  9  10  11  12  13  23  28  29  30  31  32 0
 6-311+G(2d,p)
 ****
 33  34 0
 6-311+G(2d,p)
 ****
 1  2  14  15  16  17  18  19  20  21  22  24  25  26  27 0
 3-21G
 ****
 35  36  37  38  39  40  41  42  43  44  45 0
 3-21G
 ****


