%nproc=1
%NoSave
%Mem=1900MB
#P OB98/GEN NMR

erre ene a

0 1
  C      447.649    -147.391      56.577
  O      447.028    -146.610      55.575
  P      447.070    -145.010      55.654
  C      448.169    -144.779      53.342
  O      448.278    -144.492      54.734
  C      448.361    -143.507      52.521
  O      449.711    -143.005      52.658
  C      448.165    -143.698      51.026
  O      446.799    -143.862      50.686
  C      448.815    -142.438      50.476
  O      447.924    -141.320      50.569
  C      450.005    -142.260      51.449
  N      451.270    -142.669      50.865
  C      452.384    -141.890      51.197
  O      452.253    -140.872      51.882
  N      453.617    -142.278      50.735
  C      453.710    -143.277      49.917
  N      454.963    -143.656      49.538
  C      452.540    -144.023      49.410
  C      451.368    -143.686      49.939
  O      447.049    -144.441      57.036
  O      445.776    -144.546      54.830
  H      445.271    -143.908      55.372
  H      448.397    -140.552      50.200
  H      452.666    -144.804      48.676
  H      450.452    -144.194      49.647
  H      450.085    -141.208      51.759
  H      449.104    -142.536      49.425
  H      448.730    -144.578      50.690
  H      447.670    -142.743      52.903
  H      455.743    -143.130      49.917
  H      447.177    -145.196      53.147
  H      455.169    -144.588      49.182
  H      448.919    -145.530      53.070
  P      446.406    -145.176      49.854
  C      444.416    -145.927      51.327
  O      445.724    -146.201      50.874
  O      447.825    -145.845      49.531
  O      445.635    -144.911      48.601
  H      447.805    -146.250      48.647
  H      443.973    -146.853      51.709
  H      443.784    -145.541      50.519
  H      444.454    -145.197      52.137
  H      447.516    -148.429      56.354
  H      447.207    -147.171      57.526
  H      448.694    -147.164      56.609

 3  4  5  6  7  8  9  10  11  12  13  24  27  28  29  30  32 0
 6-311+G(2d,p)
 ****
 34  35 0
 6-311+G(2d,p)
 ****
 1  2  14  15  16  17  18  19  20  21  22  23  25  26 0
 3-21G
 ****
 31  33  36  37  38  39  40  41  42  43  44  45  46 0
 3-21G
 ****


