%nproc=1
%NoSave
%Mem=1900MB
#P OB98/GEN NMR

erre ene a

0 1
  C      621.749    -490.446     268.734
  O      622.006    -489.754     269.936
  P      623.327    -490.077     270.786
  C      624.599    -492.200     271.508
  O      623.506    -491.667     270.750
  C      624.182    -493.519     272.167
  O      624.019    -494.563     271.177
  C      625.228    -494.073     273.137
  O      625.479    -493.332     274.312
  C      624.737    -495.501     273.300
  O      623.666    -495.570     274.249
  C      624.211    -495.819     271.876
  N      625.135    -496.708     271.149
  C      625.383    -497.940     271.744
  O      624.875    -498.302     272.797
  N      626.264    -498.746     271.074
  C      626.934    -498.432     269.930
  O      627.746    -499.200     269.409
  C      626.653    -497.106     269.369
  C      625.774    -496.304     269.991
  O      623.356    -489.488     272.157
  O      624.511    -489.577     269.838
  H      623.999    -495.240     275.101
  H      624.557    -490.021     268.968
  H      626.460    -499.647     271.493
  H      627.163    -496.827     268.451
  H      625.537    -495.325     269.591
  H      623.244    -496.318     271.929
  H      625.531    -496.162     273.669
  H      626.183    -494.122     272.608
  H      623.211    -493.365     272.660
  H      624.867    -491.474     272.291
  H      625.461    -492.330     270.859
  P      626.881    -493.371     275.085
  C      628.396    -495.234     276.081
  O      627.105    -494.858     275.640
  O      627.164    -492.246     276.027
  O      627.927    -493.313     273.876
  H      628.736    -492.858     274.173
  H      628.378    -496.285     276.382
  H      628.697    -494.635     276.942
  H      629.125    -495.111     275.270
  H      620.830    -490.098     268.312
  H      621.675    -491.494     268.935
  H      622.548    -490.271     268.044

 3  4  5  6  7  8  9  10  11  12  13  23  28  29  30  31  32 0
 6-311+G(2d,p)
 ****
 33  34 0
 6-311+G(2d,p)
 ****
 1  2  14  15  16  17  18  19  20  21  22  24  25  26  27 0
 3-21G
 ****
 35  36  37  38  39  40  41  42  43  44  45 0
 3-21G
 ****


