%nproc=1
%NoSave
%Mem=1900MB
#P OB98/GEN NMR

erre ene a

0 1
  C      127.357    -205.578      -2.874
  O      128.124    -204.395      -2.742
  P      127.356    -202.990      -2.663
  C      126.970    -203.136      -0.068
  O      126.413    -203.057      -1.367
  C      126.506    -201.949       0.781
  O      125.056    -201.861       0.718
  C      126.895    -202.038       2.264
  O      127.167    -200.704       2.712
  C      125.629    -202.573       2.912
  O      125.564    -202.287       4.300
  C      124.561    -201.868       2.070
  N      123.250    -202.518       2.132
  C      122.415    -202.198       3.197
  O      122.720    -201.416       4.097
  N      121.200    -202.835       3.214
  C      120.779    -203.785       2.331
  O      119.687    -204.338       2.405
  C      121.723    -204.120       1.256
  C      122.890    -203.476       1.203
  O      126.342    -203.123      -3.891
  O      128.261    -201.807      -2.717
  H      126.011    -204.029      -4.015
  H      126.214    -202.853       4.756
  H      120.564    -202.587       3.956
  H      121.431    -204.881       0.545
  H      123.603    -203.705       0.420
  H      124.465    -200.822       2.382
  H      125.588    -203.660       2.785
  H      127.770    -202.673       2.429
  H      126.906    -201.029       0.337
  H      128.061    -203.118      -0.139
  H      126.678    -204.084       0.394
  P      128.247    -200.505       3.889
  C      130.272    -201.141       2.359
  O      129.522    -201.400       3.524
  O      127.545    -201.345       5.062
  O      128.506    -199.085       4.271
  H      127.249    -202.223       4.773
  H      131.254    -201.610       2.461
  H      130.413    -200.068       2.203
  H      129.765    -201.572       1.491
  H      128.011    -206.424      -2.913
  H      126.781    -205.531      -3.774
  H      126.700    -205.673      -2.035

 3  4  5  6  7  8  9  10  11  12  13  24  28  29  30  31  32 0
 6-311+G(2d,p)
 ****
 33  34 0
 6-311+G(2d,p)
 ****
 1  2  14  15  16  17  18  19  20  21  22  23  25  26  27 0
 3-21G
 ****
 35  36  37  38  39  40  41  42  43  44  45 0
 3-21G
 ****


