%nproc=1
%NoSave
%Mem=1900MB
#P OB98/GEN NMR

erre ene a

0 1
  C     -464.091    -270.975    -138.839
  O     -462.834    -270.360    -139.108
  P     -461.536    -271.293    -139.251
  C     -460.784    -270.836    -141.749
  O     -461.334    -271.704    -140.779
  C     -459.373    -271.321    -142.122
  O     -459.424    -272.682    -142.607
  C     -458.710    -270.475    -143.207
  O     -458.037    -269.355    -142.674
  C     -457.786    -271.483    -143.859
  O     -456.602    -271.675    -143.056
  C     -458.662    -272.762    -143.846
  N     -459.605    -272.969    -144.966
  C     -459.134    -273.454    -146.186
  O     -457.958    -273.724    -146.416
  N     -460.079    -273.636    -147.164
  C     -461.437    -273.556    -147.007
  O     -462.231    -273.787    -147.902
  C     -461.885    -273.185    -145.661
  C     -460.972    -272.904    -144.722
  O     -461.970    -272.657    -138.546
  O     -460.291    -270.718    -138.641
  H     -456.902    -271.889    -142.152
  H     -461.431    -272.818    -137.750
  H     -459.745    -273.919    -148.076
  H     -462.948    -273.153    -145.479
  H     -461.300    -272.631    -143.725
  H     -458.033    -273.660    -143.789
  H     -457.432    -271.129    -144.831
  H     -459.454    -270.174    -143.953
  H     -458.749    -271.306    -141.211
  H     -460.734    -269.810    -141.374
  H     -461.424    -270.817    -142.632
  P     -458.308    -267.897    -143.292
  C     -459.216    -267.236    -140.983
  O     -459.455    -267.245    -142.374
  O     -458.540    -267.840    -144.760
  O     -457.004    -267.061    -142.855
  H     -456.341    -267.047    -143.585
  H     -459.985    -266.627    -140.494
  H     -458.231    -266.799    -140.765
  H     -459.263    -268.252    -140.587
  H     -464.849    -270.223    -138.773
  H     -464.036    -271.508    -137.913
  H     -464.331    -271.656    -139.629

 3  4  5  6  7  8  9  10  11  12  13  23  28  29  30  31  32 0
 6-311+G(2d,p)
 ****
 33  34 0
 6-311+G(2d,p)
 ****
 1  2  14  15  16  17  18  19  20  21  22  24  25  26  27 0
 3-21G
 ****
 35  36  37  38  39  40  41  42  43  44  45 0
 3-21G
 ****


