%nproc=1
%NoSave
%Mem=1900MB
#P OB98/GEN NMR

erre ene a

0 1
  C       27.753    -131.411    -211.115
  O       28.255    -131.779    -209.845
  H       26.710    -131.730    -211.184
  H       28.322    -131.902    -211.910
  H       27.794    -130.327    -211.242
  P       29.787    -131.458    -209.508
  C       30.611    -133.681    -210.531
  O       30.659    -132.261    -210.588
  C       32.022    -134.263    -210.581
  O       32.735    -133.763    -211.728
  C       32.880    -133.928    -209.362
  O       32.581    -134.798    -208.283
  C       34.270    -134.157    -209.930
  O       34.538    -135.572    -209.994
  C       34.127    -133.586    -211.353
  N       37.896    -130.196    -211.600
  C       37.940    -131.548    -211.326
  N       39.156    -132.066    -211.049
  N       36.886    -132.322    -211.313
  C       35.729    -131.657    -211.538
  C       35.557    -130.317    -211.804
  C       36.741    -129.483    -211.884
  O       36.748    -128.284    -212.148
  N       34.228    -129.984    -211.887
  C       33.600    -131.134    -211.725
  N       34.467    -132.180    -211.500
  O       30.212    -131.692    -208.089
  O       29.976    -129.931    -209.948
  H       34.808    -135.855    -209.101
  H       29.813    -129.326    -209.201
  H       38.741    -129.649    -211.588
  H       32.525    -131.267    -211.763
  H       34.737    -134.136    -212.081
  H       35.057    -133.707    -209.324
  H       39.977    -131.498    -210.897
  H       32.783    -132.873    -209.079
  H       39.199    -133.045    -210.787
  H       31.933    -135.350    -210.707
  H       30.028    -134.026    -211.392
  H       30.109    -134.011    -209.617
  P       32.452    -134.255    -206.776
  C       34.847    -135.082    -206.258
  O       33.955    -133.980    -206.291
  O       31.653    -135.122    -205.866
  O       31.881    -132.772    -206.936
  H       30.894    -132.745    -207.009
  H       35.807    -134.754    -205.918
  H       34.939    -135.496    -207.240
  H       34.468    -135.828    -205.591

 6  7  8  9  10  11  12  13  14  15  26  29  33  34 0
 6-311+G(2d,p)
 ****
 36  38  39  40  41 0
 6-311+G(2d,p)
 ****
 1  2  3  4  5  16  17  18  19  20  21  22  23  24  25 0
 3-21G
 ****
 27  28  30  31  32  35  37  42  43  44  45  46  47 0
 3-21G
 ****
 48  49 0
 3-21G
 ****


