%nproc=1
%NoSave
%Mem=1900MB
#P OB98/GEN NMR

erre ene a

0 1
  C     -355.365     767.313    -323.673
  O     -354.191     767.165    -322.908
  H     -356.074     767.941    -323.119
  H     -355.830     766.334    -323.842
  H     -355.151     767.791    -324.632
  P     -353.006     766.304    -323.573
  C     -352.700     763.803    -324.252
  O     -353.549     764.791    -323.665
  C     -353.349     762.430    -324.137
  O     -353.406     762.037    -322.742
  C     -354.786     762.382    -324.630
  O     -354.857     762.291    -326.052
  C     -355.302     761.127    -323.930
  O     -354.953     759.934    -324.637
  C     -354.563     761.174    -322.589
  N     -358.307     759.902    -319.361
  C     -357.620     759.182    -320.283
  N     -356.622     759.600    -321.097
  C     -356.336     760.894    -320.879
  C     -356.948     761.757    -319.971
  C     -357.980     761.198    -319.192
  N     -358.706     761.943    -318.281
  N     -356.413     763.026    -320.068
  C     -355.484     762.930    -320.994
  N     -355.402     761.663    -321.512
  O     -351.907     766.241    -322.405
  O     -352.444     766.861    -324.845
  H     -355.228     760.069    -325.562
  H     -351.251     766.953    -322.532
  H     -357.915     758.145    -320.393
  H     -354.857     763.746    -321.344
  H     -354.185     760.191    -322.291
  H     -356.397     761.149    -323.836
  H     -355.354     763.253    -324.281
  H     -352.722     761.706    -324.664
  H     -351.744     763.797    -323.716
  H     -352.522     764.065    -325.306
  H     -359.439     761.487    -317.768
  H     -358.543     762.937    -318.219
  P     -356.169     762.835    -326.787
  C     -357.820     761.834    -328.548
  O     -356.875     761.591    -327.504
  O     -355.586     763.695    -328.014
  O     -357.083     763.655    -325.929
  H     -355.599     764.637    -327.800
  H     -358.194     760.901    -328.915
  H     -357.343     762.365    -329.345
  H     -358.631     762.418    -328.166

 6  7  8  9  10  11  12  13  14  15  25  28  32  33  34  35 0
 6-311+G(2d,p)
 ****
 36  37  40 0
 6-311+G(2d,p)
 ****
 1  2  3  4  5  16  17  18  19  20  21  22  23  24 0
 3-21G
 ****
 26  27  29  30  31  38  39 41  42  43  44  45  46  47  48 0
 3-21G
 ****


