%nproc=1
%NoSave
%Mem=1900MB
#P OB98/GEN NMR

erre ene a

0 1
  C      206.256     450.177    -130.241
  O      206.500     449.819    -128.904
  P      206.099     448.362    -128.358
  C      203.912     449.212    -127.294
  O      204.488     448.349    -128.257
  C      202.411     449.343    -127.538
  O      202.139     449.756    -128.903
  C      201.640     448.041    -127.383
  O      201.577     447.474    -126.090
  C      200.320     448.396    -128.045
  O      199.467     449.119    -127.162
  C      200.799     449.293    -129.214
  N      200.744     448.603    -130.502
  C      199.930     449.186    -131.470
  O      199.288     450.218    -131.288
  N      199.852     448.512    -132.663
  C      200.460     447.327    -132.961
  O      200.308     446.753    -134.036
  C      201.284     446.751    -131.890
  C      201.396     447.404    -130.726
  O      206.795     447.930    -127.120
  O      206.365     447.411    -129.624
  H      199.040     448.459    -126.572
  H      205.850     447.631    -130.423
  H      199.262     448.914    -133.372
  H      201.793     445.817    -132.097
  H      201.999     446.993    -129.925
  H      200.164     450.190    -129.280
  H      199.773     447.496    -128.365
  H      202.131     447.276    -128.006
  H      202.025     450.127    -126.883
  H      204.373     450.200    -127.383
  H      204.120     448.834    -126.284
  P      201.619     445.893    -125.814
  C      199.042     445.564    -125.771
  O      200.269     445.241    -126.395
  O      202.056     445.461    -124.457
  O      202.711     445.408    -126.892
  H      203.177     444.631    -126.539
  H      198.249     445.014    -126.268
  H      198.834     446.641    -125.874
  H      199.065     445.293    -124.718
  H      206.591     451.179    -130.409
  H      205.207     450.113    -130.441
  H      206.784     449.511    -130.891

 3  4  5  6  7  8  9  10  11  12  13  23  28  29  30  31  32 0
 6-311+G(2d,p)
 ****
 33  34 0
 6-311+G(2d,p)
 ****
 1  2  14  15  16  17  18  19  20  21  22  24  25  26  27 0
 3-21G
 ****
 35  36  37  38  39  40  41  42  43  44  45 0
 3-21G
 ****


