%nproc=1
%NoSave
%Mem=1900MB
#P OB98/GEN NMR

erre ene a

0 1
  C     -477.253    -235.196     905.960
  O     -477.492    -235.008     904.571
  P     -478.235    -233.656     904.125
  C     -480.640    -234.628     904.407
  O     -479.664    -234.092     903.523
  C     -482.040    -234.385     903.849
  O     -482.250    -232.980     903.617
  C     -482.304    -235.066     902.505
  O     -482.536    -236.462     902.668
  C     -483.533    -234.278     902.036
  O     -484.711    -234.754     902.701
  C     -483.191    -232.845     902.524
  N     -484.166    -229.844     898.479
  C     -484.985    -230.551     899.297
  N     -484.646    -231.345     900.343
  C     -483.317    -231.361     900.515
  C     -482.355    -230.709     899.753
  C     -482.827    -229.914     898.690
  N     -481.992    -229.192     897.867
  N     -481.083    -230.984     900.212
  C     -481.274    -231.784     901.246
  N     -482.596    -232.031     901.481
  O     -477.410    -233.204     902.832
  O     -478.281    -232.590     905.171
  H     -484.893    -235.655     902.353
  H     -477.368    -232.230     902.782
  H     -486.051    -230.471     899.087
  H     -480.483    -232.205     901.851
  H     -484.071    -232.305     902.896
  H     -483.699    -234.352     900.956
  H     -481.473    -234.896     901.817
  H     -482.772    -234.724     904.595
  H     -480.562    -234.137     905.383
  H     -482.403    -228.778     897.047
  H     -480.997    -229.357     897.928
  H     -480.447    -235.698     904.543
  P     -481.311    -237.441     902.306
  C     -481.522    -236.912     899.799
  O     -481.632    -237.908     900.802
  O     -481.681    -238.744     903.157
  O     -479.950    -236.872     902.543
  H     -482.601    -239.000     903.030
  H     -481.723    -237.361     898.830
  H     -480.537    -236.461     899.796
  H     -482.283    -236.116     899.974
  H     -476.755    -236.131     906.113
  H     -478.185    -235.198     906.485
  H     -476.639    -234.401     906.327

 3  4  5  6  7  8  9  10  11  12  22  25  29  30  31  32 0
 6-311+G(2d,p)
 ****
 33  36  37 0
 6-311+G(2d,p)
 ****
 1  2  13  14  15  16  17  18  19  20  21  23  24  26 0
 3-21G
 ****
 27  28  34  35  38  39  40  41  42  43  44  45  46  47  48 0
 3-21G
 ****


