%nproc=1
%NoSave
%Mem=1900MB
#P OB98/GEN NMR

erre ene a

0 1
  C     -303.309     -21.279      17.307
  O     -304.335     -20.822      16.451
  H     -303.250     -20.611      18.170
  H     -302.350     -21.259      16.784
  H     -303.515     -22.291      17.663
  P     -304.817     -21.765      15.248
  C     -304.374     -20.013      13.408
  O     -305.347     -20.793      14.087
  C     -304.863     -18.574      13.226
  O     -306.046     -18.591      12.368
  C     -305.265     -17.877      14.543
  O     -304.975     -16.481      14.391
  C     -306.761     -18.124      14.559
  O     -307.416     -17.315      15.500
  C     -307.083     -17.888      13.082
  N     -308.408     -18.352      12.691
  C     -309.484     -17.512      12.954
  O     -309.376     -16.401      13.470
  N     -310.717     -17.997      12.608
  C     -310.970     -19.214      12.046
  O     -312.093     -19.591      11.735
  C     -309.794     -20.070      11.818
  C     -308.586     -19.607      12.145
  O     -305.747     -22.868      15.621
  O     -303.446     -22.330      14.640
  H     -303.273     -23.220      15.001
  H     -307.077     -16.395      15.456
  H     -311.508     -17.401      12.790
  H     -309.963     -21.050      11.393
  H     -307.698     -20.212      11.994
  H     -306.985     -16.827      12.828
  H     -306.971     -19.161      14.839
  H     -304.733     -18.269      15.412
  H     -304.095     -18.001      12.694
  H     -304.192     -20.468      12.429
  H     -303.441     -20.020      13.983
  P     -303.752     -15.750      15.131
  C     -304.942     -14.134      16.751
  O     -304.195     -14.264      15.550
  O     -302.473     -15.790      14.357
  O     -303.585     -16.509      16.531
  H     -302.639     -16.548      16.763
  H     -305.174     -13.103      16.917
  H     -304.365     -14.507      17.572
  H     -305.850     -14.695      16.669

 6  7  8  9  10  11  12  13  14  15  16  27  31  32  33  34  35 0
 6-311+G(2d,p)
 ****
 36  37 0
 6-311+G(2d,p)
 ****
 1  2  3  4  5  17  18  19  20  21  22  23  24  25 0
 3-21G
 ****
 26  28  29  30  38  39  40  41  42  43  44  45 0
 3-21G
 ****


