%nproc=1
%NoSave
%Mem=1900MB
#P OB98/GEN NMR

erre ene a

0 1
  C        5.676    -336.501      92.744
  O        5.903    -335.551      91.725
  H        4.599    -336.678      92.825
  H        6.040    -336.115      93.700
  H        6.172    -337.446      92.510
  P        7.431    -335.297      91.302
  C        8.125    -332.989      92.269
  O        8.082    -334.395      92.462
  C        6.817    -332.349      92.727
  O        6.501    -332.763      94.079
  C        6.833    -330.825      92.738
  O        6.579    -330.282      91.448
  C        5.684    -330.540      93.691
  O        4.427    -330.726      93.009
  C        5.878    -331.633      94.753
  N        5.887    -329.676      99.434
  C        4.828    -329.932      98.579
  N        3.598    -329.610      99.033
  N        4.965    -330.448      97.386
  C        6.253    -330.709      97.059
  C        7.382    -330.502      97.818
  C        7.222    -329.937      99.140
  O        8.122    -329.712      99.943
  N        8.514    -330.901      97.152
  C        8.076    -331.326      95.985
  N        6.708    -331.227      95.876
  O        7.310    -334.281      90.068
  O        8.203    -336.518      90.925
  H        4.278    -329.928      92.471
  H        8.014    -334.487      89.421
  H        5.727    -329.265     100.339
  H        8.696    -331.720      95.194
  H        4.926    -331.984      95.168
  H        5.692    -329.518      94.073
  H        3.427    -329.163      99.923
  H        7.768    -330.434      93.166
  H        2.805    -329.818      98.441
  H        6.014    -332.723      92.076
  H        8.280    -332.777      91.202
  H        8.968    -332.576      92.840
  P        6.617    -328.684      91.291
  C        4.252    -327.678      90.896
  O        5.201    -328.164      91.842
  O        6.500    -328.474      89.708
  O        7.827    -328.024      91.861
  H        6.869    -327.606      89.462
  H        3.364    -327.369      91.408
  H        4.011    -328.455      90.201
  H        4.668    -326.845      90.369

 6  7  8  9  10  11  12  13  14  15  26  29  33  34 0
 6-311+G(2d,p)
 ****
 36  38  39  40  41 0
 6-311+G(2d,p)
 ****
 1  2  3  4  5  16  17  18  19  20  21  22  23  24  25 0
 3-21G
 ****
 27  28  30  31  32  35  37  42  43  44  45  46  47 0
 3-21G
 ****
 48  49 0
 3-21G
 ****


