%nproc=1
%NoSave
%Mem=1900MB
#P OB98/GEN NMR

erre ene a

0 1
  C      -58.261     689.266     665.188
  O      -58.690     688.400     664.163
  H      -58.920     689.129     666.053
  H      -58.332     690.307     664.865
  H      -57.236     689.033     665.489
  P      -57.925     688.419     662.750
  C      -55.453     688.338     662.053
  O      -56.392     688.080     663.094
  C      -54.301     687.336     662.082
  O      -53.471     687.584     663.250
  C      -54.764     685.864     662.150
  O      -54.034     685.090     661.194
  C      -54.378     685.436     663.556
  O      -54.200     684.028     663.679
  C      -53.128     686.294     663.792
  N      -52.763     686.359     665.201
  C      -51.865     685.387     665.656
  O      -51.428     684.538     664.881
  N      -51.540     685.357     666.984
  C      -52.088     686.201     667.798
  N      -51.745     686.095     669.115
  C      -53.069     687.229     667.371
  C      -53.354     687.250     666.071
  O      -58.134     689.657     661.943
  O      -58.421     687.092     661.995
  H      -54.977     683.577     663.287
  H      -58.287     687.208     661.026
  H      -53.509     687.898     668.099
  H      -54.057     687.966     665.661
  H      -52.272     685.895     663.229
  H      -55.172     685.736     664.258
  H      -55.836     685.744     661.971
  H      -53.663     687.511     661.210
  H      -51.076     685.368     669.365
  H      -55.076     689.364     662.169
  H      -52.126     686.681     669.846
  H      -55.970     688.261     661.090
  P      -54.214     685.522     659.660
  C      -53.337     687.477     658.187
  O      -53.133     686.682     659.339
  O      -55.617     686.282     659.642
  O      -54.196     684.366     658.705
  H      -56.281     685.753     659.163
  H      -52.548     688.196     658.105
  H      -54.276     687.985     658.266
  H      -53.341     686.852     657.319

 6  7  8  9  10  11  12  13  14  15  16  26  30  31  32  33  35 0
 6-311+G(2d,p)
 ****
 37  38 0
 6-311+G(2d,p)
 ****
 1  2  3  4  5  17  18  19  20  21  22  23  24  25 0
 3-21G
 ****
 27  28  29  34  36  39  40  41  42  43  44  45  46 0
 3-21G
 ****


