%nproc=1
%NoSave
%Mem=1900MB
#P OB98/GEN NMR

erre ene a

0 1
  C      321.921    1022.055    -897.690
  O      322.907    1021.199    -897.130
  H      321.776    1021.765    -898.740
  H      322.269    1023.084    -897.660
  H      320.975    1021.946    -897.170
  P      323.205    1021.387    -895.560
  C      322.319    1019.021    -894.890
  O      323.451    1019.906    -894.970
  C      322.761    1017.557    -894.920
  O      323.255    1017.226    -896.260
  C      323.924    1017.231    -893.930
  O      323.703    1015.898    -893.440
  C      325.147    1017.226    -894.840
  O      326.232    1016.492    -894.260
  C      324.554    1016.620    -896.120
  N      329.117    1015.740    -898.020
  C      328.557    1015.301    -896.820
  N      329.304    1014.533    -896.010
  N      327.337    1015.613    -896.470
  C      326.664    1016.373    -897.380
  C      327.157    1016.865    -898.600
  C      328.498    1016.530    -898.970
  O      329.072    1016.871    -900.000
  N      326.185    1017.611    -899.230
  C      325.142    1017.579    -898.390
  N      325.400    1016.851    -897.270
  O      321.770    1021.804    -894.970
  O      324.268    1022.399    -895.210
  H      326.909    1016.362    -894.970
  H      321.694    1022.776    -894.940
  H      330.070    1015.454    -898.240
  H      324.192    1018.100    -898.590
  H      324.426    1015.534    -896.030
  H      325.501    1018.258    -895.010
  H      330.232    1014.202    -896.260
  H      324.008    1017.925    -893.100
  H      328.890    1014.184    -895.170
  H      321.890    1016.925    -894.740
  H      321.665    1019.224    -895.760
  H      321.768    1019.243    -893.970
  P      324.499    1015.433    -892.120
  C      322.500    1014.839    -890.550
  O      323.584    1014.383    -891.320
  O      324.386    1016.741    -891.200
  O      325.943    1015.047    -892.350
  H      325.145    1016.789    -890.580
  H      322.011    1014.004    -890.094
  H      321.808    1015.357    -891.180
  H      322.856    1015.503    -889.790

 6  7  8  9  10  11  12  13  14  15  26  29  33  34 0
 6-311+G(2d,p)
 ****
 36  38  39  40  41 0
 6-311+G(2d,p)
 ****
 1  2  3  4  5  16  17  18  19  20  21  22  23  24  25 0
 3-21G
 ****
 27  28  30  31  32  35  37  42  43  44  45  46  47 0
 3-21G
 ****
 48  49 0
 3-21G
 ****


