%nproc=1
%NoSave
%Mem=1900MB
#P OB98/GEN NMR

erre ene a

0 1
  C       95.098     -47.384     157.669
  O       93.919     -47.965     158.193
  H       95.969     -47.960     157.988
  H       95.041     -47.402     156.577
  H       95.194     -46.346     158.001
  P       93.717     -47.881     159.783
  C       92.437     -45.622     159.660
  O       92.394     -46.998     160.009
  C       91.101     -44.948     159.977
  O       90.065     -45.558     159.162
  C       90.680     -45.086     161.445
  O       90.065     -43.867     161.866
  C       89.650     -46.203     161.414
  O       88.741     -46.129     162.505
  C       89.009     -45.985     160.046
  N       84.859     -48.945     160.338
  C       85.152     -47.745     160.881
  N       86.282     -47.019     160.748
  C       87.143     -47.632     159.916
  C       86.985     -48.856     159.289
  C       85.778     -49.533     159.534
  N       85.486     -50.773     159.013
  N       88.108     -49.167     158.542
  C       88.924     -48.145     158.719
  N       88.388     -47.197     159.543
  O       94.905     -46.898     160.226
  O       93.763     -49.180     160.513
  H       88.124     -45.384     162.342
  H       95.742     -47.400     160.268
  H       84.380     -47.313     161.513
  H       89.910     -48.050     158.284
  H       88.235     -45.206     160.064
  H       90.157     -47.175     161.456
  H       91.518     -45.317     162.106
  H       91.159     -43.894     159.679
  H       92.646     -45.532     158.588
  H       84.620     -51.210     159.286
  H       86.184     -51.254     158.462
  H       93.240     -45.132     160.224
  P       91.008     -42.794     162.597
  C       91.203     -41.085     160.659
  O       90.720     -41.346     161.969
  O       92.471     -43.160     162.058
  O       90.945     -42.862     164.090
  H       93.093     -43.237     162.805
  H       90.939     -40.088     160.374
  H       90.766     -41.780     159.973
  H       92.268     -41.190     160.644

 6  7  8  9  10  11  12  13  14  15  25  28  32  33  34  35 0
 6-311+G(2d,p)
 ****
 36  39  40 0
 6-311+G(2d,p)
 ****
 1  2  3  4  5  16  17  18  19  20  21  22  23  24 0
 3-21G
 ****
 26  27  29  30  31  37  38  41  42  43  44  45  46  47 0
 3-21G
 ****
 48 0
 3-21G
 ****


