%nproc=1
%NoSave
%Mem=1900MB
#P OB98/GEN NMR

erre ene a

0 1
  C     -323.060     -57.114    -376.897
  O     -321.781     -57.681    -376.706
  H     -322.971     -56.027    -376.790
  H     -323.762     -57.474    -376.143
  H     -323.433     -57.340    -377.900
  P     -321.650     -59.286    -376.612
  C     -322.197     -61.043    -374.827
  O     -322.249     -59.666    -375.156
  C     -322.938     -61.338    -373.513
  O     -322.223     -60.729    -372.408
  C     -324.378     -60.799    -373.483
  O     -325.252     -61.816    -372.987
  C     -324.306     -59.628    -372.510
  O     -325.575     -59.343    -371.921
  C     -323.210     -60.106    -371.550
  N     -322.635     -59.027    -370.755
  C     -323.122     -58.882    -369.451
  O     -324.023     -59.618    -369.042
  N     -322.606     -57.889    -368.660
  C     -321.726     -57.062    -369.140
  N     -321.267     -56.091    -368.311
  C     -321.211     -57.153    -370.538
  C     -321.702     -58.158    -371.270
  O     -320.286     -59.814    -376.885
  O     -322.769     -59.839    -377.614
  H     -325.830     -60.124    -371.359
  H     -322.553     -60.772    -377.861
  H     -320.482     -56.443    -370.889
  H     -321.378     -58.299    -372.294
  H     -323.598     -60.881    -370.866
  H     -323.968     -58.728    -373.047
  H     -324.739     -60.482    -374.463
  H     -322.913     -62.418    -373.328
  H     -321.645     -56.066    -367.365
  H     -321.141     -61.347    -374.742
  H     -320.581     -55.397    -368.581
  H     -322.670     -61.613    -375.638
  P     -326.664     -61.974    -373.738
  C     -329.134     -61.924    -372.935
  O     -327.810     -61.423    -372.751
  O     -326.900     -63.558    -373.747
  O     -326.671     -61.393    -375.118
  H     -326.666     -63.927    -374.621
  H     -329.788     -61.476    -372.216
  H     -329.135     -62.986    -372.805
  H     -329.472     -61.685    -373.922

 6  7  8  9  10  11  12  13  14  15  16  26  30  31  32  33  35 0
 6-311+G(2d,p)
 ****
 37  38 0
 6-311+G(2d,p)
 ****
 1  2  3  4  5  17  18  19  20  21  22  23  24  25 0
 3-21G
 ****
 27  28  29  34  36  39  40  41  42  43  44  45  46 0
 3-21G
 ****


