%nproc=1
%NoSave
%Mem=1900MB
#P OB98/GEN NMR

erre ene a

0 1
  C      737.642    -677.396    -892.280
  O      737.544    -676.087    -891.730
  P      736.157    -675.695    -891.010
  C      734.919    -674.667    -893.100
  O      735.006    -675.710    -892.140
  C      733.663    -674.829    -893.970
  O      732.497    -674.493    -893.180
  C      733.598    -673.925    -895.190
  O      732.644    -674.468    -896.130
  C      733.064    -672.640    -894.610
  O      732.528    -671.774    -895.620
  C      732.037    -673.158    -893.580
  N      731.920    -672.300    -892.370
  C      731.145    -671.155    -892.430
  O      730.512    -670.819    -893.430
  N      731.096    -670.370    -891.300
  C      731.734    -670.647    -890.130
  O      731.756    -669.853    -889.190
  C      732.470    -671.930    -890.060
  C      732.522    -672.667    -891.170
  O      736.347    -674.142    -890.670
  O      735.854    -676.512    -889.800
  H      732.378    -670.904    -895.160
  H      736.503    -674.021    -889.720
  H      730.585    -669.515    -891.350
  H      732.923    -672.201    -889.110
  H      733.058    -673.621    -891.130
  H      731.027    -673.247    -894.000
  H      733.867    -672.086    -894.100
  H      734.559    -673.773    -895.700
  H      733.560    -675.890    -894.280
  H      735.817    -674.658    -893.700
  H      734.878    -673.697    -892.580
  P      733.167    -675.496    -897.250
  C      733.676    -673.693    -899.010
  O      734.223    -674.672    -898.160
  O      732.120    -676.240    -897.990
  O      734.130    -676.473    -896.420
  H      734.264    -677.316    -896.890
  H      734.422    -672.908    -899.170
  H      732.764    -673.250    -898.620
  H      733.461    -674.168    -900.000
  H      738.607    -677.525    -892.725
  H      736.885    -677.527    -893.025
  H      737.508    -678.120    -891.504

 3  4  5  6  7  8  9  10  11  12  13  23  28  29  30  31  32 0
 6-311+G(2d,p)
 ****
 33  34 0
 6-311+G(2d,p)
 ****
 1  2  14  15  16  17  18  19  20  21  22  24  25  26  27 0
 3-21G
 ****
 35  36  37  38  39  40  41  42  43  44  45 0
 3-21G
 ****


