%nproc=1
%NoSave
%Mem=1900MB
#P OB98/GEN NMR

erre ene a

0 1
  C      512.337     303.890     377.815
  O      511.564     303.119     376.887
  P      511.945     302.970     375.329
  C      509.639     303.723     374.436
  O      510.587     302.674     374.511
  C      508.233     303.160     374.181
  O      507.667     302.652     375.401
  C      507.209     304.171     373.671
  O      507.418     304.539     372.324
  C      505.903     303.422     373.922
  O      505.598     302.518     372.848
  C      506.224     302.612     375.203
  N      505.524     303.095     376.394
  C      504.163     302.755     376.483
  O      503.602     302.147     375.563
  N      503.481     303.128     377.598
  C      504.065     303.869     378.499
  N      503.333     304.187     379.605
  C      505.441     304.363     378.376
  C      506.109     303.930     377.295
  O      513.033     301.972     375.064
  O      512.379     304.440     374.848
  H      512.993     304.366     374.097
  H      506.180     301.739     372.966
  H      505.882     305.013     379.120
  H      507.144     304.252     377.124
  H      505.993     301.546     375.046
  H      505.049     304.095     374.034
  H      507.240     305.071     374.306
  H      508.324     302.333     373.462
  H      502.388     303.828     379.671
  H      509.915     304.387     373.611
  H      503.694     304.737     380.371
  H      509.664     304.305     375.362
  P      507.628     306.092     372.010
  C      506.287     306.200     369.781
  O      507.550     306.298     370.433
  O      509.183     306.355     372.358
  O      506.742     307.010     372.798
  H      509.273     307.226     372.791
  H      506.299     306.804     368.877
  H      505.479     306.546     370.441
  H      506.114     305.162     369.508
  H      511.887     303.837     378.784
  H      512.369     304.909     377.492
  H      513.332     303.499     377.862

 3  4  5  6  7  8  9  10  11  12  13  24  27  28  29  30  32 0
 6-311+G(2d,p)
 ****
 34  35 0
 6-311+G(2d,p)
 ****
 1  2  14  15  16  17  18  19  20  21  22  23  25  26 0
 3-21G
 ****
 31  33  36  37  38  39  40  41  42  43  44  45  46 0
 3-21G
 ****


