%nproc=1
%NoSave
%Mem=1900MB
#P OB98/GEN NMR

erre ene a

0 1
  C       95.362      85.899    -290.582
  O       94.924      84.554    -290.477
  P       93.557      84.071    -291.168
  C       92.257      84.206    -288.942
  O       92.390      84.700    -290.267
  C       90.934      84.676    -288.344
  O       90.945      86.110    -288.211
  C       89.708      84.351    -289.189
  O       89.351      82.981    -289.069
  C       88.696      85.346    -288.628
  O       88.151      84.859    -287.395
  C       89.582      86.579    -288.356
  N       89.485      87.591    -289.409
  C       88.304      88.342    -289.443
  O       87.411      88.154    -288.616
  N       88.175      89.318    -290.398
  C       89.126      89.517    -291.259
  N       88.974      90.543    -292.137
  C       90.360      88.712    -291.293
  C       90.475      87.780    -290.344
  O       93.452      82.600    -291.388
  O       93.461      84.934    -292.511
  H       88.907      84.639    -286.815
  H       93.912      84.513    -293.285
  H       91.121      88.904    -292.038
  H       91.362      87.157    -290.289
  H       89.315      87.037    -287.396
  H       87.861      85.548    -289.306
  H       89.896      84.578    -290.246
  H       90.832      84.239    -287.339
  H       88.200      91.178    -291.962
  H       93.080      84.597    -288.333
  H       89.765      90.940    -292.629
  H       92.316      83.111    -288.953
  P       88.585      82.300    -290.303
  C       86.263      82.245    -289.145
  O       87.056      82.781    -290.192
  O       88.548      80.753    -289.905
  O       89.233      82.534    -291.630
  H       89.238      80.261    -290.388
  H       85.353      82.842    -289.066
  H       86.797      82.291    -288.190
  H       85.992      81.214    -289.373
  H       96.287      86.015    -290.057
  H       94.626      86.548    -290.156
  H       95.504      86.149    -291.613

 3  4  5  6  7  8  9  10  11  12  13  23  27  28  29  30  32 0
 6-311+G(2d,p)
 ****
 34  35 0
 6-311+G(2d,p)
 ****
 1  2  14  15  16  17  18  19  20  21  22  24  25  26 0
 3-21G
 ****
 31  33  36  37  38  39  40  41  42  43  44  45  46 0
 3-21G
 ****


