%nproc=1
%NoSave
%Mem=1900MB
#P OB98/GEN NMR

erre ene a

0 1
  C      -44.266      59.348     106.629
  O      -42.909      59.432     106.248
  H      -44.823      58.844     105.836
  H      -44.683      60.349     106.769
  H      -44.363      58.771     107.551
  P      -41.920      60.195     107.253
  C      -41.213      61.897     105.423
  O      -41.782      61.698     106.708
  C      -40.302      63.120     105.450
  O      -39.514      63.173     104.239
  C      -41.046      64.447     105.509
  O      -41.512      64.744     106.812
  C      -39.963      65.404     105.037
  O      -39.096      65.789     106.115
  C      -39.205      64.559     103.990
  N      -39.530      64.956     102.624
  C      -39.079      66.214     102.237
  O      -38.446      66.961     102.983
  N      -39.413      66.606     100.970
  C      -40.170      65.894     100.087
  O      -40.496      66.334      98.991
  C      -40.608      64.565     100.545
  C      -40.281      64.166     101.777
  O      -40.497      59.539     106.928
  O      -42.276      60.083     108.697
  H      -40.261      58.895     107.621
  H      -38.324      66.223     105.701
  H      -39.105      67.519     100.676
  H      -41.205      63.970      99.865
  H      -40.610      63.199     102.144
  H      -38.122      64.669     104.124
  H      -40.388      66.321     104.631
  H      -41.866      64.455     104.781
  H      -39.616      63.023     106.302
  H      -42.011      62.062     104.691
  H      -40.654      61.000     105.137
  P      -42.767      65.731     106.969
  C      -41.289      67.762     107.740
  O      -42.197      67.221     106.799
  O      -43.066      65.604     108.534
  O      -43.912      65.393     106.078
  H      -42.261      65.500     109.069
  H      -41.029      68.759     107.452
  H      -40.406      67.158     107.772
  H      -41.745      67.777     108.708

 6  7  8  9  10  11  12  13  14  15  16  27  31  32  33  34  35 0
 6-311+G(2d,p)
 ****
 36  37 0
 6-311+G(2d,p)
 ****
 1  2  3  4  5  17  18  19  20  21  22  23  24  25 0
 3-21G
 ****
 26  28  29  30  38  39  40  41  42  43  44  45 0
 3-21G
 ****


