%nproc=1
%NoSave
%Mem=1900MB
#P OB98/GEN NMR

erre ene a

0 1
  C      760.980    -533.675     889.912
  O      761.410    -532.973     888.767
  H      760.988    -534.750     889.699
  H      759.956    -533.384     890.168
  H      761.641    -533.482     890.764
  P      761.696    -531.402     888.938
  C      759.166    -530.833     889.026
  O      760.415    -530.786     889.689
  C      758.119    -530.042     889.821
  O      757.741    -530.816     890.993
  C      758.626    -528.674     890.327
  O      757.537    -527.752     890.270
  C      758.983    -528.954     891.778
  O      758.976    -527.797     892.599
  C      757.891    -529.965     892.150
  N      758.226    -530.752     893.338
  C      757.564    -530.442     894.509
  O      756.647    -529.608     894.614
  N      757.977    -531.124     895.631
  C      758.986    -532.046     895.684
  O      759.329    -532.607     896.711
  C      759.670    -532.323     894.405
  C      759.263    -531.664     893.307
  O      761.551    -530.853     887.438
  O      763.012    -531.047     889.553
  H      762.411    -530.884     886.977
  H      758.902    -528.100     893.529
  H      757.496    -530.912     896.484
  H      760.482    -533.030     894.409
  H      759.760    -531.835     892.350
  H      756.932    -529.453     892.309
  H      759.972    -529.415     891.837
  H      759.483    -528.288     889.760
  H      757.226    -529.921     889.208
  H      758.828    -531.888     888.947
  H      759.267    -530.423     888.013
  P      757.453    -526.802     888.978
  C      758.268    -524.733     890.370
  O      758.463    -525.595     889.248
  O      755.985    -526.148     889.173
  O      757.629    -527.555     887.692
  H      755.775    -525.990     890.110
  H      759.037    -523.990     890.387
  H      758.307    -525.307     891.272
  H      757.313    -524.256     890.292

 6  7  8  9  10  11  12  13  14  15  16  27  31  32  33  34  35 0
 6-311+G(2d,p)
 ****
 36  37 0
 6-311+G(2d,p)
 ****
 1  2  3  4  5  17  18  19  20  21  22  23  24  25 0
 3-21G
 ****
 26  28  29  30  38  39  40  41  42  43  44  45 0
 3-21G
 ****


