%nproc=1
%NoSave
%Mem=1900MB
#P OB98/GEN NMR

erre ene a

0 1
  C      180.839    -153.256      48.633
  O      181.266    -152.724      47.394
  H      179.795    -153.563      48.542
  H      180.918    -152.496      49.415
  H      181.443    -154.127      48.899
  P      182.789    -152.230      47.309
  C      183.813    -154.030      45.738
  O      183.678    -153.542      47.066
  C      185.088    -153.474      45.113
  O      184.997    -152.033      45.016
  C      186.344    -153.746      45.930
  O      186.822    -155.068      45.763
  C      187.286    -152.686      45.382
  O      187.911    -153.119      44.167
  C      186.342    -151.510      45.105
  N      187.599    -146.660      46.074
  C      187.549    -147.366      44.924
  N      187.190    -148.655      44.748
  C      186.831    -149.210      45.917
  C      186.827    -148.614      47.167
  C      187.232    -147.271      47.224
  N      187.308    -146.558      48.397
  N      186.433    -149.518      48.134
  C      186.195    -150.636      47.480
  N      186.418    -150.497      46.138
  O      183.119    -151.819      48.820
  O      183.038    -151.107      46.360
  H      188.451    -152.367      43.855
  H      183.054    -150.851      48.916
  H      187.846    -146.828      44.028
  H      185.870    -151.566      47.930
  H      186.562    -151.018      44.150
  H      188.074    -152.458      46.098
  H      186.157    -153.535      46.991
  H      185.187    -153.879      44.098
  H      182.950    -153.709      45.144
  H      183.840    -155.124      45.763
  H      187.672    -145.620      48.372
  H      187.147    -147.038      49.273
  P      187.591    -155.744      46.996
  C      185.347    -156.658      47.958
  O      186.531    -155.906      48.186
  O      188.572    -154.591      47.514
  O      188.332    -156.992      46.655
  H      189.410    -154.984      47.827
  H      184.753    -156.667      48.848
  H      185.607    -157.661      47.693
  H      184.789    -156.212      47.161

 6  7  8  9  10  11  12  13  14  15  25  28  32  33  34  35 0
 6-311+G(2d,p)
 ****
 36  37  40 0
 6-311+G(2d,p)
 ****
 1  2  3  4  5  16  17  18  19  20  21  22  23  24 0
 3-21G
 ****
 26  27  29  30  31  38  39 41  42  43  44  45  46  47  48 0
 3-21G
 ****


