%nproc=1
%NoSave
%Mem=1900MB
#P OB98/GEN NMR

erre ene a

0 1
  C      246.462     307.206      53.208
  O      245.806     308.456      53.345
  P      246.380     309.712      52.530
  C      246.241     310.384      50.027
  O      246.371     309.331      50.971
  C      247.260     310.234      48.896
  O      248.603     310.389      49.427
  C      247.205     308.872      48.196
  O      247.529     309.034      46.808
  C      248.338     308.099      48.839
  O      248.793     307.040      47.994
  C      249.358     309.216      49.061
  N      253.731     310.595      51.181
  C      252.893     311.316      50.353
  N      253.327     312.536      49.972
  N      251.729     310.882      49.940
  C      251.434     309.639      50.395
  C      252.172     308.834      51.235
  C      253.464     309.326      51.673
  O      254.265     308.728      52.384
  N      251.526     307.661      51.503
  C      250.411     307.725      50.799
  N      250.330     308.893      50.082
  O      247.935     309.700      52.910
  O      245.756     311.018      52.878
  H      248.072     306.379      47.958
  H      248.127     310.420      53.543
  H      254.624     310.972      51.461
  H      249.652     306.957      50.753
  H      249.904     309.450      48.137
  H      248.006     307.663      49.785
  H      254.241     312.903      50.199
  H      246.240     308.355      48.286
  H      252.752     313.067      49.326
  H      247.109     311.045      48.173
  H      246.406     311.337      50.534
  H      245.224     310.387      49.617
  P      246.947     307.918      45.811
  C      244.565     307.518      44.851
  O      245.357     308.044      45.895
  O      247.263     306.547      46.577
  O      247.535     307.951      44.440
  H      247.333     305.811      45.939
  H      243.939     306.715      45.246
  H      245.170     307.122      44.024
  H      243.921     308.312      44.458
  H      245.964     306.474      53.809
  H      247.478     307.300      53.529
  H      246.438     306.901      52.183

 3  4  5  6  7  8  9  10  11  12  23  26  30  31 0
 6-311+G(2d,p)
 ****
 33  35  36  37  38 0
 6-311+G(2d,p)
 ****
 1  2  13  14  15  16  17  18  19  20  21  22  24  25 0
 3-21G
 ****
 27  28  29  32  34  39  40  41  42  43  44  45  46  47  48  49 0
 3-21G
 ****


