%nproc=1
%NoSave
%Mem=1900MB
#P OB98/GEN NMR

erre ene a

0 1
  C      -92.250    -204.502     493.064
  O      -92.049    -203.668     491.920
  P      -91.177    -204.060     490.643
  C      -88.933    -202.924     491.431
  O      -89.639    -204.109     491.075
  C      -87.640    -203.259     492.199
  O      -86.906    -202.018     492.443
  C      -87.915    -203.904     493.566
  O      -87.042    -204.987     493.875
  C      -87.898    -202.707     494.508
  O      -87.686    -203.065     495.866
  C      -86.830    -201.813     493.870
  N      -87.940    -198.354     497.459
  C      -88.057    -199.729     497.508
  N      -88.543    -200.260     498.651
  N      -87.735    -200.519     496.515
  C      -87.338    -199.860     495.402
  C      -87.192    -198.498     495.231
  C      -87.501    -197.635     496.351
  O      -87.402    -196.418     496.374
  N      -86.756    -198.196     493.965
  C      -86.649    -199.370     493.368
  N      -86.985    -200.410     494.209
  O      -91.498    -203.315     489.386
  O      -91.529    -205.607     490.393
  H      -87.733    -202.253     496.398
  H      -91.476    -205.759     489.431
  H      -88.176    -197.796     498.259
  H      -86.321    -199.526     492.346
  H      -85.821    -202.091     494.194
  H      -88.881    -202.225     494.451
  H      -88.927    -199.708     499.402
  H      -88.909    -204.364     493.587
  H      -88.835    -201.240     498.594
  H      -87.015    -203.910     491.568
  H      -89.611    -202.359     492.082
  H      -88.724    -202.317     490.547
  P      -87.407    -206.527     494.106
  C      -87.577    -206.395     496.665
  O      -88.274    -206.644     495.461
  O      -86.027    -207.227     494.500
  O      -88.014    -207.206     492.922
  H      -85.801    -207.910     493.838
  H      -88.184    -206.762     497.497
  H      -87.428    -205.312     496.786
  H      -86.610    -206.907     496.670
  H      -92.874    -203.995     493.770
  H      -91.305    -204.721     493.516
  H      -92.721    -205.414     492.762

 3  4  5  6  7  8  9  10  11  12  23  26  30  31 0
 6-311+G(2d,p)
 ****
 33  35  36  37  38 0
 6-311+G(2d,p)
 ****
 1  2  13  14  15  16  17  18  19  20  21  22  24  25 0
 3-21G
 ****
 27  28  29  32  34  39  40  41  42  43  44  45  46  47  48  49 0
 3-21G
 ****


