%nproc=1
%NoSave
%Mem=1900MB
#P OB98/GEN NMR

erre ene a

0 1
  C     -384.525     837.527      31.937
  O     -384.879     837.501      33.304
  H     -383.514     837.931      31.841
  H     -385.214     838.165      31.381
  H     -384.542     836.513      31.525
  P     -386.338     836.940      33.667
  C     -385.632     835.736      35.853
  O     -386.377     836.795      35.269
  C     -384.183     836.160      36.083
  O     -384.173     837.386      36.865
  C     -383.342     835.118      36.837
  O     -382.016     835.118      36.288
  C     -383.295     835.672      38.251
  O     -382.174     835.183      38.979
  C     -383.262     837.169      37.965
  N     -381.433     840.005      41.704
  C     -380.788     839.390      40.643
  N     -379.442     839.539      40.572
  N     -381.404     838.673      39.741
  C     -382.747     838.622      39.917
  C     -383.501     839.186      40.925
  C     -382.803     839.955      41.932
  O     -383.311     840.506      42.898
  N     -384.833     838.872      40.773
  C     -384.874     838.136      39.680
  N     -383.642     837.954      39.126
  O     -386.292     835.422      33.158
  O     -387.482     837.697      33.078
  H     -381.394     835.221      38.388
  H     -387.177     835.122      32.885
  H     -380.907     840.531      42.370
  H     -385.774     837.702      39.254
  H     -382.266     837.515      37.657
  H     -384.205     835.400      38.792
  H     -378.909     840.104      41.214
  H     -383.757     834.109      36.797
  H     -378.960     839.104      39.799
  H     -383.735     836.407      35.113
  H     -385.657     834.869      35.183
  H     -386.095     835.456      36.806
  P     -381.712     834.108      35.083
  C     -380.405     835.824      33.637
  O     -380.373     834.582      34.338
  O     -382.870     834.450      34.030
  O     -381.749     832.666      35.475
  H     -383.518     833.728      34.011
  H     -379.449     836.008      33.194
  H     -380.639     836.613      34.320
  H     -381.151     835.782      32.871

 6  7  8  9  10  11  12  13  14  15  26  29  33  34 0
 6-311+G(2d,p)
 ****
 36  38  39  40  41 0
 6-311+G(2d,p)
 ****
 1  2  3  4  5  16  17  18  19  20  21  22  23  24  25 0
 3-21G
 ****
 27  28  30  31  32  35  37  42  43  44  45  46  47 0
 3-21G
 ****
 48  49 0
 3-21G
 ****


