%nproc=1
%NoSave
%Mem=1900MB
#P OB98/GEN NMR

erre ene a

0 1
  C      866.147    -213.403    -548.070
  O      866.544    -212.772    -546.870
  H      866.984    -213.387    -548.771
  H      865.309    -212.853    -548.511
  H      865.856    -214.440    -547.885
  P      865.587    -212.970    -545.593
  C      867.288    -214.363    -544.215
  O      866.045    -214.344    -544.895
  C      867.109    -214.911    -542.798
  O      866.368    -213.964    -541.988
  C      866.348    -216.228    -542.722
  O      867.206    -217.337    -542.959
  C      865.875    -216.199    -541.275
  O      866.971    -216.547    -540.396
  C      865.502    -214.724    -541.090
  N      860.709    -215.006    -539.443
  C      861.870    -215.508    -538.891
  N      861.733    -216.191    -537.729
  N      863.060    -215.356    -539.418
  C      863.037    -214.676    -540.585
  C      861.963    -214.140    -541.249
  C      860.656    -214.293    -540.642
  O      859.598    -213.860    -541.094
  N      862.332    -213.519    -542.404
  C      863.640    -213.694    -542.459
  N      864.120    -214.402    -541.390
  O      864.178    -213.332    -546.264
  O      865.476    -211.787    -544.694
  H      866.624    -216.499    -539.481
  H      863.610    -212.541    -546.237
  H      859.820    -215.157    -539.008
  H      864.277    -213.341    -543.256
  H      865.703    -214.371    -540.068
  H      865.071    -216.918    -541.081
  H      860.849    -216.362    -537.287
  H      865.481    -216.234    -543.394
  H      862.572    -216.566    -537.306
  H      868.102    -215.008    -542.346
  H      867.690    -213.346    -544.162
  H      867.989    -214.998    -544.766
  P      866.536    -218.784    -543.176
  C      865.781    -218.311    -545.613
  O      865.375    -218.599    -544.277
  O      865.716    -218.999    -541.815
  O      867.493    -219.897    -543.419
  H      866.133    -219.718    -541.294
  H      864.916    -218.214    -546.235
  H      866.396    -219.107    -545.978
  H      866.336    -217.396    -545.628

 6  7  8  9  10  11  12  13  14  15  26  29  33  34 0
 6-311+G(2d,p)
 ****
 36  38  39  40  41 0
 6-311+G(2d,p)
 ****
 1  2  3  4  5  16  17  18  19  20  21  22  23  24  25 0
 3-21G
 ****
 27  28  30  31  32  35  37  42  43  44  45  46  47 0
 3-21G
 ****
 48  49 0
 3-21G
 ****


