%nproc=1
%NoSave
%Mem=1900MB
#P OB98/GEN NMR

erre ene a

0 1
  C       95.414     -13.895     220.122
  O       96.664     -13.364     219.721
  P       97.902     -14.378     219.589
  C       99.257     -13.001     221.330
  O       98.727     -14.267     220.961
  C      100.252     -13.162     222.481
  O       99.612     -13.739     223.635
  C      101.420     -14.089     222.166
  O      102.442     -13.440     221.422
  C      101.917     -14.417     223.567
  O      102.726     -13.338     224.068
  C      100.601     -14.511     224.357
  N       99.373     -18.116     227.688
  C       99.622     -16.773     227.894
  N       99.596     -16.340     229.171
  N       99.868     -15.923     226.927
  C       99.873     -16.497     225.697
  C       99.637     -17.814     225.372
  C       99.375     -18.743     226.451
  O       99.202     -19.949     226.339
  N       99.715     -18.014     224.018
  C       99.996     -16.826     223.525
  N      100.142     -15.880     224.507
  O       98.860     -13.661     218.526
  O       97.528     -15.759     219.168
  H      103.035     -13.615     224.956
  H       99.497     -14.302     218.167
  H       99.192     -18.732     228.465
  H      100.114     -16.606     222.470
  H      100.690     -14.075     225.354
  H      102.533     -15.321     223.599
  H       99.475     -16.954     229.964
  H      101.082     -15.006     221.675
  H       99.838     -15.375     229.355
  H      100.612     -12.164     222.754
  H       98.443     -12.348     221.639
  H       99.753     -12.554     220.464
  P      103.552     -14.381     220.753
  C      105.578     -13.372     222.033
  O      104.731     -14.486     221.834
  O      104.171     -13.447     219.604
  O      103.033     -15.671     220.212
  H      104.539     -13.991     218.885
  H      106.131     -13.514     222.965
  H      105.001     -12.445     222.104
  H      106.293     -13.296     221.211
  H       94.690     -13.108     220.166
  H       95.511     -14.345     221.088
  H       95.097     -14.633     219.415

 3  4  5  6  7  8  9  10  11  12  23  26  30  31 0
 6-311+G(2d,p)
 ****
 33  35  36  37  38 0
 6-311+G(2d,p)
 ****
 1  2  13  14  15  16  17  18  19  20  21  22  24  25 0
 3-21G
 ****
 27  28  29  32  34  39  40  41  42  43  44  45  46  47  48  49 0
 3-21G
 ****


