%nproc=1
%NoSave
%Mem=1900MB
#P OB98/GEN NMR

erre ene a

0 1
  C      -42.777     113.051    -407.862
  O      -41.873     114.012    -408.400
  P      -40.324     113.598    -408.505
  C      -40.053     114.536    -406.096
  O      -39.816     113.453    -406.986
  C      -38.779     114.881    -405.322
  O      -38.139     113.680    -404.857
  C      -37.727     115.621    -406.133
  O      -37.996     117.022    -406.211
  C      -36.485     115.366    -405.294
  O      -36.467     116.257    -404.160
  C      -36.707     113.920    -404.832
  N      -32.174     112.425    -406.669
  C      -32.534     113.493    -405.925
  N      -33.762     113.828    -405.483
  C      -34.683     112.950    -405.925
  C      -34.467     111.836    -406.722
  C      -33.141     111.576    -407.097
  N      -32.771     110.474    -407.843
  N      -35.655     111.182    -406.972
  C      -36.571     111.876    -406.322
  N      -36.029     112.945    -405.666
  O      -39.622     114.954    -409.001
  O      -40.039     112.449    -409.412
  H      -36.360     117.164    -404.513
  H      -38.780     114.745    -409.446
  H      -31.723     114.153    -405.638
  H      -37.620     111.637    -406.299
  H      -36.374     113.761    -403.796
  H      -35.560     115.538    -405.846
  H      -37.603     115.171    -407.131
  H      -39.075     115.467    -404.436
  H      -40.833     114.253    -405.389
  H      -31.787     110.262    -407.910
  H      -33.458     109.748    -407.981
  H      -40.395     115.406    -406.671
  P      -37.430     117.786    -407.507
  C      -35.937     119.196    -405.906
  O      -36.012     118.385    -407.067
  O      -38.386     119.068    -407.609
  O      -37.447     116.967    -408.756
  H      -38.426     119.395    -408.523
  H      -34.900     119.255    -405.584
  H      -36.542     118.776    -405.089
  H      -36.294     120.205    -406.142
  H      -43.766     113.459    -407.852
  H      -42.482     112.804    -406.863
  H      -42.761     112.169    -408.467

 3  4  5  6  7  8  9  10  11  12  22  25  29  30  31  32 0
 6-311+G(2d,p)
 ****
 33  36  37 0
 6-311+G(2d,p)
 ****
 1  2  13  14  15  16  17  18  19  20  21  23  24  26 0
 3-21G
 ****
 27  28  34  35  38  39  40  41  42  43  44  45  46  47  48 0
 3-21G
 ****


