%nproc=1
%NoSave
%Mem=1900MB
#P OB98/GEN NMR

erre ene a

0 1
  C     -121.031     231.997     151.009
  O     -120.647     233.359     150.921
  P     -119.070     233.678     150.999
  C     -117.227     233.248     152.803
  O     -118.608     233.305     152.491
  C     -117.014     233.678     154.255
  O     -117.328     235.077     154.420
  C     -117.874     232.927     155.265
  O     -117.299     231.671     155.575
  C     -117.893     233.906     156.433
  O     -116.691     233.790     157.218
  C     -117.960     235.262     155.717
  N     -121.809     237.592     158.031
  C     -120.642     237.062     158.560
  N     -120.456     237.212     159.892
  N     -119.739     236.437     157.846
  C     -120.061     236.348     156.532
  C     -121.189     236.818     155.897
  C     -122.154     237.551     156.689
  O     -123.152     238.119     156.254
  N     -121.176     236.512     154.562
  C     -120.027     235.889     154.385
  N     -119.303     235.783     155.546
  O     -119.025     235.276     150.963
  O     -118.242     233.050     149.923
  H     -116.500     232.849     157.383
  H     -118.823     235.593     150.065
  H     -122.457     238.070     158.626
  H     -119.664     235.522     153.435
  H     -117.382     236.037     156.247
  H     -118.732     233.715     157.119
  H     -121.120     237.659     160.506
  H     -118.894     232.798     154.876
  H     -119.608     236.827     160.292
  H     -115.945     233.547     154.492
  H     -116.681     233.929     152.142
  H     -116.864     232.229     152.641
  P     -118.287     230.462     155.924
  C     -119.969     229.936     157.835
  O     -118.934     230.776     157.357
  O     -117.297     229.238     156.206
  O     -119.268     230.134     154.842
  H     -117.701     228.406     155.880
  H     -119.930     229.924     158.926
  H     -119.869     228.916     157.459
  H     -120.933     230.342     157.515
  H     -122.096     231.922     150.945
  H     -120.701     231.593     151.943
  H     -120.586     231.448     150.206

 3  4  5  6  7  8  9  10  11  12  23  26  30  31 0
 6-311+G(2d,p)
 ****
 33  35  36  37  38 0
 6-311+G(2d,p)
 ****
 1  2  13  14  15  16  17  18  19  20  21  22  24  25 0
 3-21G
 ****
 27  28  29  32  34  39  40  41  42  43  44  45  46  47  48  49 0
 3-21G
 ****


