%nproc=1
%NoSave
%Mem=1900MB
#P OB98/GEN NMR

erre ene a

0 1
  C       96.325    1148.443    -147.216
  O       95.238    1147.790    -146.561
  P       94.342    1146.794    -147.451
  C       95.666    1144.653    -146.815
  O       95.246    1145.531    -147.847
  C       95.103    1143.251    -147.065
  O       95.705    1142.639    -148.228
  C       95.372    1142.289    -145.917
  O       94.521    1142.548    -144.816
  C       95.125    1140.949    -146.603
  O       93.720    1140.683    -146.696
  C       95.694    1141.196    -148.015
  N       98.485    1137.349    -149.911
  C       97.153    1137.578    -149.891
  N       96.489    1138.624    -149.351
  C       97.347    1139.506    -148.824
  C       98.736    1139.414    -148.771
  C       99.304    1138.265    -149.336
  N      100.663    1138.033    -149.348
  N       99.266    1140.512    -148.128
  C       98.228    1141.241    -147.774
  N       97.043    1140.687    -148.181
  O       94.153    1147.594    -148.819
  O       93.027    1146.460    -146.817
  H       93.330    1141.315    -147.328
  H       93.239    1147.908    -148.902
  H       96.536    1136.809    -150.353
  H       98.285    1142.170    -147.239
  H       95.079    1140.753    -148.794
  H       95.579    1140.108    -146.070
  H       96.421    1142.351    -145.591
  H       94.019    1143.339    -147.232
  H       95.336    1145.026    -145.846
  H      100.995    1137.142    -149.706
  H      101.273    1138.665    -148.844
  H       96.765    1144.637    -146.790
  P       95.202    1142.847    -143.395
  C       95.369    1145.411    -143.512
  O       96.060    1144.187    -143.660
  O       96.329    1141.714    -143.328
  O       94.262    1142.899    -142.236
  H       96.819    1141.641    -144.171
  H       96.071    1146.234    -143.683
  H       94.953    1145.497    -142.504
  H       94.553    1145.476    -144.243
  H       96.836    1149.072    -146.518
  H       95.950    1149.037    -148.023
  H       97.004    1147.709    -147.598

 3  4  5  6  7  8  9  10  11  12  22  25  29  30  31  32 0
 6-311+G(2d,p)
 ****
 33  36  37 0
 6-311+G(2d,p)
 ****
 1  2  13  14  15  16  17  18  19  20  21  23  24  26 0
 3-21G
 ****
 27  28  34  35  38  39  40  41  42  43  44  45  46  47  48 0
 3-21G
 ****


