%nproc=1
%NoSave
%Mem=1900MB
#P OB98/GEN NMR

erre ene a

0 1
  C     -136.791    -134.653    -225.224
  O     -137.453    -135.633    -226.026
  P     -136.710    -137.049    -226.162
  C     -136.934    -137.390    -228.721
  O     -136.067    -137.120    -227.632
  C     -136.140    -137.789    -229.972
  O     -137.021    -137.879    -231.133
  C     -135.022    -136.796    -230.331
  O     -133.945    -137.573    -230.872
  C     -135.678    -135.953    -231.413
  O     -134.751    -135.201    -232.176
  C     -136.443    -137.041    -232.160
  N     -137.281    -134.475    -236.489
  C     -136.142    -134.824    -235.852
  N     -136.002    -135.506    -234.695
  C     -137.205    -135.840    -234.199
  C     -138.452    -135.555    -234.732
  C     -138.465    -134.835    -235.941
  N     -139.620    -134.457    -236.587
  N     -139.458    -136.049    -233.915
  C     -138.817    -136.554    -232.877
  N     -137.463    -136.527    -233.044
  O     -137.916    -138.100    -226.220
  O     -135.759    -137.334    -225.048
  H     -133.895    -135.673    -232.217
  H     -138.051    -138.513    -225.347
  H     -135.218    -134.508    -236.333
  H     -139.285    -136.951    -231.987
  H     -135.780    -137.672    -232.766
  H     -136.374    -135.244    -230.947
  H     -134.655    -136.220    -229.477
  H     -135.718    -138.787    -229.807
  H     -137.540    -136.509    -228.949
  H     -139.529    -133.937    -237.444
  H     -140.523    -134.695    -236.205
  H     -137.637    -138.181    -228.432
  P     -132.676    -137.892    -229.943
  C     -131.053    -136.425    -231.282
  O     -131.750    -136.583    -230.063
  O     -131.880    -138.926    -230.875
  O     -132.972    -138.403    -228.574
  H     -131.778    -138.577    -231.779
  H     -130.529    -135.463    -231.267
  H     -131.753    -136.433    -232.123
  H     -130.318    -137.225    -231.401
  H     -137.373    -133.755    -225.205
  H     -135.827    -134.444    -225.639
  H     -136.677    -135.026    -224.227

 3  4  5  6  7  8  9  10  11  12  22  25  29  30  31  32 0
 6-311+G(2d,p)
 ****
 33  36  37 0
 6-311+G(2d,p)
 ****
 1  2  13  14  15  16  17  18  19  20  21  23  24  26 0
 3-21G
 ****
 27  28  34  35  38  39  40  41  42  43  44  45  46  47  48 0
 3-21G
 ****


