%nproc=1
%NoSave
%Mem=1900MB
#P OB98/GEN NMR

erre ene a

0 1
  C      119.960     -60.066     -48.308
  O      119.464     -61.250     -47.712
  P      118.231     -62.037     -48.360
  C      116.438     -60.723     -47.088
  O      116.971     -61.040     -48.368
  C      114.936     -60.447     -47.166
  O      114.725     -59.130     -47.743
  C      114.143     -61.451     -48.015
  O      112.855     -61.582     -47.403
  C      114.003     -60.727     -49.344
  O      112.930     -61.225     -50.135
  C      113.821     -59.295     -48.856
  N      111.871     -56.451     -52.630
  C      111.312     -57.378     -51.823
  N      111.905     -58.111     -50.859
  C      113.210     -57.807     -50.765
  C      113.925     -56.908     -51.538
  C      113.195     -56.192     -52.505
  N      113.741     -55.219     -53.312
  N      115.260     -56.918     -51.178
  C      115.344     -57.804     -50.208
  N      114.119     -58.319     -49.880
  O      117.955     -63.383     -47.777
  O      118.614     -62.148     -49.912
  H      112.935     -60.757     -50.991
  H      118.883     -63.064     -50.120
  H      110.248     -57.550     -51.966
  H      116.255     -58.110     -49.712
  H      112.802     -59.107     -48.496
  H      114.928     -60.838     -49.923
  H      114.625     -62.427     -48.116
  H      114.542     -60.417     -46.141
  H      116.950     -59.828     -46.720
  H      113.102     -54.677     -53.872
  H      114.644     -54.823     -53.062
  H      116.635     -61.544     -46.391
  P      112.252     -63.039     -47.115
  C      111.328     -63.411     -49.473
  O      112.278     -63.827     -48.508
  O      110.947     -63.061     -46.391
  O      113.408     -63.762     -46.269
  H      113.039     -64.539     -45.810
  H      110.359     -63.860     -49.246
  H      111.653     -63.747     -50.461
  H      111.229     -62.322     -49.484
  H      120.779     -59.692     -47.730
  H      119.183     -59.331     -48.342
  H      120.293     -60.280     -49.302

 3  4  5  6  7  8  9  10  11  12  22  25  29  30  31  32 0
 6-311+G(2d,p)
 ****
 33  36  37 0
 6-311+G(2d,p)
 ****
 1  2  13  14  15  16  17  18  19  20  21  23  24  26 0
 3-21G
 ****
 27  28  34  35  38  39  40  41  42  43  44  45  46  47  48 0
 3-21G
 ****


