%nproc=1
%NoSave
%Mem=1900MB
#P OB98/GEN NMR

erre ene a

0 1
  C     -783.021    -346.056     322.366
  O     -783.892    -347.167     322.472
  H     -782.410    -345.973     323.275
  H     -782.362    -346.202     321.511
  H     -783.597    -345.135     322.223
  P     -784.934    -347.149     323.697
  C     -784.909    -347.939     326.160
  O     -784.150    -347.717     324.982
  C     -784.021    -348.556     327.245
  O     -783.677    -349.900     326.830
  C     -782.715    -347.782     327.504
  O     -782.540    -347.543     328.907
  C     -781.623    -348.735     327.039
  O     -780.436    -348.640     327.811
  C     -782.294    -350.103     327.163
  N     -778.983    -353.976     326.985
  C     -779.657    -353.435     328.011
  N     -780.600    -352.466     327.979
  C     -780.848    -352.080     326.713
  C     -780.249    -352.559     325.557
  C     -779.255    -353.546     325.722
  N     -778.526    -354.066     324.684
  N     -780.751    -351.914     324.442
  C     -781.604    -351.024     324.930
  N     -781.681    -351.081     326.289
  O     -785.958    -348.327     323.322
  O     -785.635    -345.845     323.887
  H     -780.691    -348.758     328.753
  H     -786.852    -347.942     323.217
  H     -779.412    -353.823     328.999
  H     -782.152    -350.307     324.334
  H     -782.246    -350.478     328.193
  H     -781.374    -348.513     325.990
  H     -782.674    -346.832     326.963
  H     -784.608    -348.638     328.170
  H     -785.731    -348.628     325.942
  H     -777.752    -354.675     324.899
  H     -778.649    -353.665     323.757
  H     -785.326    -346.986     326.506
  P     -782.534    -345.995     329.363
  C     -780.701    -344.219     329.893
  O     -781.013    -345.467     329.275
  O     -782.822    -346.079     330.934
  O     -783.541    -345.154     328.653
  H     -783.601    -345.545     331.151
  H     -779.663    -344.001     329.753
  H     -780.916    -344.276     330.940
  H     -781.291    -343.444     329.449

 6  7  8  9  10  11  12  13  14  15  25  28  32  33  34  35 0
 6-311+G(2d,p)
 ****
 36  39  40 0
 6-311+G(2d,p)
 ****
 1  2  3  4  5  16  17  18  19  20  21  22  23  24 0
 3-21G
 ****
 26  27  29  30  31  37  38  41  42  43  44  45  46  47  48 0
 3-21G
 ****


