%nproc=1
%NoSave
%Mem=1900MB
#P OB98/GEN NMR

erre ene a

0 1
  C     -316.128     -33.476     288.597
  O     -315.448     -33.219     287.381
  P     -316.333     -32.944     286.075
  C     -315.880     -35.042     284.597
  O     -315.608     -33.670     284.846
  C     -315.001     -35.544     283.449
  O     -315.189     -34.724     282.276
  C     -313.510     -35.486     283.751
  O     -313.105     -36.571     284.571
  C     -312.909     -35.521     282.353
  O     -312.815     -36.871     281.870
  C     -313.948     -34.720     281.541
  N     -313.499     -33.366     281.241
  C     -312.698     -33.228     280.109
  O     -312.362     -34.183     279.407
  N     -312.265     -31.960     279.833
  C     -312.500     -30.850     280.591
  O     -312.036     -29.747     280.321
  C     -313.327     -31.059     281.791
  C     -313.773     -32.289     282.061
  O     -316.110     -31.386     285.782
  O     -317.780     -33.277     286.223
  H     -312.567     -36.812     280.929
  H     -316.930     -30.991     285.432
  H     -311.707     -31.834     279.005
  H     -313.533     -30.199     282.416
  H     -314.372     -32.468     282.945
  H     -314.157     -35.231     280.593
  H     -311.900     -35.101     282.330
  H     -313.261     -34.526     284.226
  H     -315.304     -36.568     283.201
  H     -316.934     -35.160     284.332
  H     -315.686     -35.616     285.507
  P     -312.014     -36.259     285.706
  C     -311.168     -38.710     285.387
  O     -311.581     -37.694     286.273
  O     -312.941     -35.620     286.845
  O     -310.912     -35.371     285.231
  H     -313.833     -36.007     286.850
  H     -310.613     -38.301     284.538
  H     -312.045     -39.249     285.022
  H     -310.522     -39.407     285.927
  H     -315.414     -33.640     289.377
  H     -316.741     -34.346     288.486
  H     -316.742     -32.636     288.847

 3  4  5  6  7  8  9  10  11  12  13  23  28  29  30  31  32 0
 6-311+G(2d,p)
 ****
 33  34 0
 6-311+G(2d,p)
 ****
 1  2  14  15  16  17  18  19  20  21  22  24  25  26 0
 3-21G
 ****
 27  35  36  37  38  39  40  41  42  43  44  45 0
 3-21G
 ****


