%nproc=1
%NoSave
%Mem=1900MB
#P OB98/GEN NMR

erre ene a

0 1
  C     -317.890    -665.580    -270.818
  O     -318.487    -665.913    -269.565
  P     -319.606    -664.907    -268.985
  C     -321.237    -666.715    -268.044
  O     -320.993    -665.710    -269.015
  C     -321.226    -668.103    -268.716
  O     -319.903    -668.419    -269.192
  C     -321.651    -669.247    -267.787
  O     -323.058    -669.329    -267.689
  C     -321.010    -670.440    -268.468
  O     -321.814    -670.902    -269.587
  C     -319.687    -669.841    -268.991
  N     -315.277    -672.288    -268.370
  C     -316.267    -672.433    -269.342
  N     -316.012    -673.340    -270.305
  N     -317.387    -671.771    -269.365
  C     -317.514    -670.916    -268.325
  C     -316.618    -670.665    -267.299
  C     -315.358    -671.373    -267.312
  O     -314.414    -671.192    -266.536
  N     -317.094    -669.732    -266.420
  C     -318.266    -669.366    -266.926
  N     -318.550    -670.054    -268.100
  O     -319.767    -663.833    -270.154
  O     -319.285    -664.289    -267.672
  H     -321.377    -671.676    -269.987
  H     -319.238    -663.021    -269.948
  H     -314.431    -672.809    -268.408
  H     -318.940    -668.642    -266.505
  H     -319.386    -670.268    -269.967
  H     -320.888    -671.291    -267.806
  H     -315.186    -673.921    -270.344
  H     -321.186    -669.104    -266.793
  H     -316.708    -673.479    -271.029
  H     -321.901    -668.050    -269.585
  H     -322.213    -666.544    -267.583
  H     -320.458    -666.675    -267.260
  P     -323.698    -669.574    -266.238
  C     -324.355    -667.299    -265.143
  O     -323.352    -668.301    -265.335
  O     -322.758    -670.743    -265.624
  O     -325.124    -669.988    -266.255
  H     -323.311    -671.343    -265.086
  H     -324.216    -666.834    -264.190
  H     -325.353    -667.750    -265.198
  H     -324.254    -666.546    -265.940
  H     -317.171    -666.328    -271.081
  H     -317.404    -664.630    -270.740
  H     -318.647    -665.533    -271.573

 3  4  5  6  7  8  9  10  11  12  23  26  30  31 0
 6-311+G(2d,p)
 ****
 33  35  36  37  38 0
 6-311+G(2d,p)
 ****
 1  2  13  14  15  16  17  18  19  20  21  22  24  25 0
 3-21G
 ****
 27  28  29  32  34  39  40  41  42  43  44  45  46  47  48  49 0
 3-21G
 ****


