%nproc=1
%NoSave
%Mem=1900MB
#P OB98/GEN NMR

erre ene a

0 1
  C       41.968      92.508     321.483
  O       41.391      91.412     320.786
  P       42.364      90.209     320.342
  C       43.496      89.530     318.071
  O       42.925      90.547     318.883
  C       43.743      90.039     316.640
  O       42.486      90.469     316.083
  C       44.675      91.236     316.527
  O       45.148      91.322     315.179
  C       43.731      92.390     316.804
  O       44.267      93.629     316.348
  C       42.429      91.925     316.109
  N       41.196      92.381     316.781
  C       40.796      93.705     316.605
  O       41.399      94.527     315.926
  N       39.667      94.087     317.281
  C       38.894      93.279     318.079
  O       37.939      93.688     318.722
  C       39.278      91.860     318.110
  C       40.403      91.490     317.484
  O       41.373      88.977     320.108
  O       43.422      89.899     321.356
  H       43.570      94.313     316.515
  H       41.436      88.349     320.837
  H       39.395      95.052     317.218
  H       38.663      91.169     318.667
  H       40.712      90.448     317.520
  H       42.385      92.291     315.066
  H       43.562      92.481     317.880
  H       45.526      91.230     317.225
  H       44.109      89.199     316.027
  H       42.824      88.655     318.053
  H       44.445      89.192     318.512
  P       46.736      91.437     314.946
  C       48.609      93.018     315.721
  O       47.232      92.685     315.830
  O       47.186      91.423     313.525
  O       47.311      90.177     315.758
  H       48.208      89.975     315.449
  H       48.714      94.093     315.897
  H       49.011      92.779     314.724
  H       49.173      92.469     316.482
  H       41.208      93.225     321.712
  H       42.717      92.965     320.871
  H       42.413      92.159     322.391

 3  4  5  6  7  8  9  10  11  12  13  23  28  29  30  31  32 0
 6-311+G(2d,p)
 ****
 33  34 0
 6-311+G(2d,p)
 ****
 1  2  14  15  16  17  18  19  20  21  22  24  25  26  27 0
 3-21G
 ****
 35  36  37  38  39  40  41  42  43  44  45 0
 3-21G
 ****


