%nproc=1
%NoSave
%Mem=1900MB
#P OB98/GEN NMR

erre ene a

0 1
  C     -254.885    -112.051    -231.639
  O     -253.710    -112.868    -231.592
  P     -253.098    -113.361    -232.990
  C     -250.985    -111.850    -232.644
  O     -252.098    -112.196    -233.456
  C     -250.209    -110.695    -233.283
  O     -250.942    -109.452    -233.137
  C     -248.847    -110.441    -232.661
  O     -247.906    -111.425    -233.055
  C     -248.554    -109.034    -233.168
  O     -248.068    -109.082    -234.519
  C     -249.955    -108.388    -233.137
  N     -250.145    -107.487    -232.007
  C     -249.547    -106.236    -232.121
  O     -248.874    -105.898    -233.095
  N     -249.733    -105.387    -231.064
  C     -250.415    -105.673    -229.915
  O     -250.552    -104.866    -229.005
  C     -250.981    -107.028    -229.832
  C     -250.825    -107.859    -230.864
  O     -254.364    -113.208    -233.954
  O     -252.514    -114.732    -232.919
  H     -254.925    -112.448    -233.727
  H     -248.064    -108.159    -234.842
  H     -249.314    -104.470    -231.133
  H     -251.508    -107.298    -228.925
  H     -251.232    -108.864    -230.817
  H     -250.128    -107.814    -234.057
  H     -247.802    -108.519    -232.565
  H     -248.935    -110.430    -231.565
  H     -250.106    -110.909    -234.354
  H     -250.320    -112.710    -232.538
  H     -251.344    -111.581    -231.647
  P     -247.502    -112.527    -231.957
  C     -248.669    -114.408    -233.348
  O     -248.544    -113.731    -232.116
  O     -247.957    -111.798    -230.604
  O     -246.059    -112.913    -231.993
  H     -248.828    -111.373    -230.674
  H     -249.140    -115.379    -233.168
  H     -247.692    -114.572    -233.810
  H     -249.304    -113.826    -234.024
  H     -255.182    -111.796    -230.643
  H     -255.675    -112.589    -232.120
  H     -254.676    -111.157    -232.188

 3  4  5  6  7  8  9  10  11  12  13  24  28  29  30  31  32 0
 6-311+G(2d,p)
 ****
 33  34 0
 6-311+G(2d,p)
 ****
 1  2  14  15  16  17  18  19  20  21  22  23  25  26  27 0
 3-21G
 ****
 35  36  37  38  39  40  41  42  43  44  45 0
 3-21G
 ****


