%nproc=1
%NoSave
%Mem=1900MB
#P OB98/GEN NMR

erre ene a

0 1
  C     -180.163      67.065     803.807
  O     -179.983      67.718     802.569
  H     -179.509      66.179     803.841
  H     -181.199      66.729     803.927
  H     -179.891      67.727     804.635
  P     -181.012      68.885     802.178
  C     -179.837      70.427     803.891
  O     -180.259      70.262     802.529
  C     -178.442      71.062     803.965
  O     -177.440      70.114     803.512
  C     -178.275      72.283     803.043
  O     -179.012      73.411     803.479
  C     -176.759      72.373     802.916
  O     -176.130      73.104     803.970
  C     -176.343      70.888     802.991
  N     -175.882      70.376     801.694
  C     -175.083      69.244     801.728
  O     -174.757      68.677     802.768
  N     -174.643      68.783     800.513
  C     -174.863      69.376     799.305
  O     -174.409      68.940     798.259
  C     -175.703      70.602     799.340
  C     -176.157      71.040     800.505
  O     -182.384      68.775     802.775
  O     -181.002      68.871     800.581
  H     -175.166      72.991     803.860
  H     -181.783      69.354     800.216
  H     -174.071      67.949     800.519
  H     -175.900      71.095     798.392
  H     -176.765      71.935     800.553
  H     -175.513      70.758     803.712
  H     -176.471      72.863     801.980
  H     -178.662      72.018     802.058
  H     -178.225      71.313     805.008
  H     -179.809      69.435     804.357
  H     -180.560      71.047     804.426
  P     -179.322      74.648     802.507
  C     -181.787      73.963     801.969
  O     -180.910      74.932     802.565
  O     -178.640      74.663     801.184
  O     -178.731      75.880     803.369
  H     -178.372      76.538     802.748
  H     -182.802      74.283     802.083
  H     -181.654      73.017     802.452
  H     -181.558      73.867     800.928

 6  7  8  9  10  11  12  13  14  15  16  26  31  32  33  34  35 0
 6-311+G(2d,p)
 ****
 36  37 0
 6-311+G(2d,p)
 ****
 1  2  3  4  5  17  18  19  20  21  22  23  24  25 0
 3-21G
 ****
 27  28  29  30  38  39  40  41  42  43  44  45 0
 3-21G
 ****


