%nproc=1
%NoSave
%Mem=1900MB
#P OB98/GEN NMR

erre ene a

0 1
  C      268.829     994.880     341.703
  O      267.617     994.234     341.363
  H      268.740     995.281     342.717
  H      269.024     995.706     341.013
  H      269.658     994.170     341.678
  P      267.549     993.553     339.910
  C      267.869     994.419     337.477
  O      267.647     994.751     338.846
  C      266.890     995.195     336.597
  O      267.156     996.612     336.699
  C      267.004     994.865     335.117
  O      266.361     993.651     334.785
  C      266.342     996.089     334.491
  O      264.914     995.961     334.471
  C      266.765     997.220     335.444
  N      268.263    1000.105     331.510
  C      267.072     999.528     331.800
  N      266.750     998.783     332.886
  C      267.805     998.681     333.721
  C      269.074     999.212     333.547
  C      269.282     999.966     332.381
  N      270.498    1000.535     332.062
  N      269.893     998.867     334.597
  C      269.135     998.131     335.396
  N      267.864     998.003     334.907
  O      266.026     993.075     339.807
  O      268.501     992.425     339.696
  H      264.725     995.113     334.020
  H      265.970     992.119     340.005
  H      266.281     999.681     331.079
  H      269.463     997.675     336.326
  H      265.942     997.910     335.663
  H      266.678     996.227     333.465
  H      268.059     994.844     334.813
  H      265.869     995.016     336.964
  H      267.706     993.342     337.333
  H      268.897     994.665     337.217
  H      270.594    1000.994     331.175
  H      271.297    1000.338     332.649
  P      266.852     992.877     333.468
  C      267.340     993.598     331.013
  O      266.656     993.868     332.229
  O      265.753     991.750     333.244
  O      268.227     992.298     333.572
  H      266.171     990.934     332.894
  H      267.100     994.353     330.294
  H      267.040     992.641     330.640
  H      268.395     993.597     331.190

 6  7  8  9  10  11  12  13  14  15  25  28  32  33  34  35 0
 6-311+G(2d,p)
 ****
 36  37  40 0
 6-311+G(2d,p)
 ****
 1  2  3  4  5  16  17  18  19  20  21  22  23  24 0
 3-21G
 ****
 26  27  29  30  31  38  39 41  42  43  44  45  46  47  48 0
 3-21G
 ****


