%nproc=1
%NoSave
%Mem=1900MB
#P OB98/GEN NMR

erre ene a

0 1
  C      -15.898     126.433      51.146
  O      -14.580     126.706      50.722
  P      -13.425     125.600      50.825
  C      -12.956     126.703      53.108
  O      -13.039     125.480      52.384
  C      -12.467     126.441      54.538
  O      -13.475     125.643      55.238
  C      -11.134     125.664      54.584
  O      -10.119     126.277      55.381
  C      -11.568     124.276      55.033
  O      -10.527     123.503      55.601
  C      -12.762     124.602      55.938
  N      -13.600     123.435      56.204
  C      -13.462     122.826      57.449
  O      -12.697     123.210      58.330
  N      -14.201     121.691      57.646
  C      -14.955     121.052      56.706
  O      -15.511     119.983      56.923
  C      -15.031     121.722      55.397
  C      -14.382     122.875      55.212
  O      -12.258     125.808      49.919
  O      -14.212     124.228      50.572
  H      -10.293     123.901      56.459
  H      -14.925     124.040      51.209
  H      -14.110     121.239      58.543
  H      -15.615     121.233      54.630
  H      -14.420     123.390      54.257
  H      -12.436     125.019      56.894
  H      -11.922     123.733      54.147
  H      -10.685     125.598      53.587
  H      -12.378     127.408      55.044
  H      -13.948     127.158      53.146
  H      -12.294     127.402      52.585
  P       -8.554     126.271      55.043
  C       -7.795     124.302      56.564
  O       -8.003     124.781      55.252
  O       -7.754     127.340      55.710
  O       -8.517     126.451      53.450
  H       -7.692     126.905      53.192
  H       -6.995     123.554      56.541
  H       -8.712     123.823      56.922
  H       -7.510     125.107      57.248
  H      -16.508     127.298      50.993
  H      -15.893     126.180      52.186
  H      -16.292     125.614      50.581

 3  4  5  6  7  8  9  10  11  12  13  23  28  29  30  31  32 0
 6-311+G(2d,p)
 ****
 33  34 0
 6-311+G(2d,p)
 ****
 1  2  14  15  16  17  18  19  20  21  22  24  25  26  27 0
 3-21G
 ****
 35  36  37  38  39  40  41  42  43  44  45 0
 3-21G
 ****


