%nproc=1
%NoSave
%Mem=1900MB
#P OB98/GEN NMR

erre ene a

0 1
  C      123.005    -571.425    -978.318
  O      123.615    -572.490    -977.598
  P      125.117    -572.892    -978.003
  C      126.013    -570.880    -976.619
  O      126.054    -572.284    -976.848
  C      126.148    -570.572    -975.136
  O      125.027    -571.131    -974.419
  C      127.389    -571.163    -974.481
  O      128.542    -570.364    -974.712
  C      126.993    -571.112    -973.009
  O      127.214    -569.794    -972.486
  C      125.479    -571.420    -973.073
  N      124.613    -574.775    -969.377
  C      124.901    -573.429    -969.292
  N      124.940    -572.890    -968.059
  N      125.134    -572.676    -970.343
  C      125.029    -573.339    -971.515
  C      124.748    -574.671    -971.721
  C      124.542    -575.510    -970.554
  O      124.349    -576.720    -970.561
  N      124.701    -574.971    -973.061
  C      124.922    -573.818    -973.663
  N      125.149    -572.800    -972.765
  O      125.420    -571.935    -979.256
  O      125.322    -574.333    -978.336
  H      126.899    -569.800    -971.564
  H      126.105    -572.344    -979.826
  H      124.420    -575.307    -968.546
  H      124.921    -573.683    -974.733
  H      124.917    -570.775    -972.393
  H      127.567    -571.810    -972.388
  H      124.637    -573.385    -967.231
  H      127.546    -572.200    -974.791
  H      125.112    -571.900    -967.988
  H      126.122    -569.486    -975.012
  H      125.053    -570.491    -976.981
  H      126.818    -570.410    -977.193
  P      129.876    -571.138    -975.169
  C      129.010    -570.771    -977.585
  O      130.099    -570.735    -976.697
  O      129.403    -572.666    -975.235
  O      131.035    -570.955    -974.248
  H      130.160    -573.265    -975.095
  H      128.079    -570.460    -977.097
  H      128.887    -571.792    -977.975
  H      129.201    -570.093    -978.423
  H      122.014    -571.265    -977.947
  H      122.961    -571.676    -979.357
  H      123.581    -570.532    -978.191

 3  4  5  6  7  8  9  10  11  12  23  26  30  31  33  0
 6-311+G(2d,p)
 ****
 35  36  37  38 0
 6-311+G(2d,p)
 ****
 1  2  13  14  15  16  17  18  19  20  21  22  24  25  27  28  29 0
 3-21G
 ****
 32  34  39  40  41  42  43  44  45  46  47  48  49 0
 3-21G
 ****


