%nproc=1
%NoSave
%Mem=1900MB
#P OB98/GEN NMR

erre ene a

0 1
  C      217.071    -194.991      24.542
  O      216.354    -196.088      25.076
  P      217.181    -197.158      25.943
  C      215.232    -197.934      27.482
  O      216.117    -198.261      26.413
  C      214.078    -198.929      27.538
  O      213.224    -198.758      26.393
  C      214.513    -200.385      27.513
  O      214.993    -200.785      28.779
  C      213.222    -201.076      27.091
  O      212.392    -201.360      28.231
  C      212.559    -200.025      26.175
  N      212.590    -200.407      24.771
  C      211.636    -201.355      24.379
  O      210.856    -201.827      25.204
  N      211.624    -201.771      23.068
  C      212.492    -201.288      22.232
  N      212.428    -201.734      20.946
  C      213.520    -200.301      22.611
  C      213.517    -199.909      23.887
  O      217.511    -196.358      27.289
  O      218.412    -197.684      25.278
  H      212.216    -200.493      28.653
  H      218.321    -196.705      27.709
  H      214.218    -199.926      21.875
  H      214.242    -199.191      24.251
  H      211.510    -199.874      26.462
  H      213.415    -202.032      26.596
  H      215.282    -200.541      26.745
  H      213.486    -198.721      28.441
  H      211.717    -202.415      20.720
  H      214.827    -196.930      27.320
  H      213.043    -201.398      20.217
  H      215.795    -197.936      28.420
  P      215.904    -202.099      28.851
  C      217.476    -200.969      30.532
  O      216.587    -202.045      30.302
  O      217.129    -201.716      27.889
  O      215.267    -203.393      28.464
  H      217.713    -202.487      27.772
  H      217.745    -200.960      31.593
  H      217.000    -200.014      30.283
  H      218.386    -201.098      29.938
  H      216.403    -194.362      23.991
  H      217.840    -195.351      23.891
  H      217.512    -194.431      25.340

 3  4  5  6  7  8  9  10  11  12  13  21  23  27  28  29  30  32 0
 6-311+G(2d,p)
 ****
 34  35 0
 6-311+G(2d,p)
 ****
 1  2  14  15  16  17  18  19  20  22  24  25  26 0
 3-21G
 ****
 31  33  36  37  38  39  40  41  42  43  44  45  46 0
 3-21G
 ****


