%nproc=1
%NoSave
%Mem=1900MB
#P OB98/GEN NMR

erre ene a

0 1
  C     -180.675     173.460     -61.824
  O     -181.210     174.753     -61.605
  P     -182.705     174.853     -61.038
  C     -185.038     174.769     -62.200
  O     -183.681     174.330     -62.200
  C     -185.586     174.818     -63.631
  O     -184.890     175.866     -64.367
  C     -185.435     173.512     -64.429
  O     -186.591     173.415     -65.284
  C     -184.174     173.785     -65.233
  O     -184.005     172.907     -66.333
  C     -184.385     175.250     -65.582
  N     -181.692     176.874     -69.626
  C     -182.926     176.319     -69.527
  N     -183.577     175.920     -68.411
  C     -182.828     176.159     -67.316
  C     -181.562     176.701     -67.268
  C     -180.972     177.072     -68.491
  N     -179.725     177.628     -68.598
  N     -181.106     176.756     -65.958
  C     -182.083     176.259     -65.243
  N     -183.165     175.906     -66.011
  O     -182.989     176.433     -61.035
  O     -182.917     174.244     -59.685
  H     -183.225     173.168     -66.856
  H     -183.498     176.693     -60.240
  H     -183.461     176.169     -70.474
  H     -182.077     176.134     -64.163
  H     -185.146     175.397     -66.368
  H     -183.309     173.645     -64.591
  H     -185.377     172.623     -63.780
  H     -186.636     175.116     -63.572
  H     -185.086     175.766     -61.774
  H     -179.319     177.674     -69.527
  H     -179.128     177.573     -67.772
  H     -185.629     174.095     -61.565
  P     -187.476     172.063     -65.235
  C     -187.119     169.708     -66.197
  O     -186.540     170.973     -65.956
  O     -188.548     172.377     -66.365
  O     -188.038     171.696     -63.891
  H     -188.138     172.672     -67.192
  H     -186.420     169.100     -66.785
  H     -188.053     169.813     -66.768
  H     -187.322     169.201     -65.243
  H     -179.677     173.546     -62.201
  H     -181.281     172.939     -62.536
  H     -180.663     172.918     -60.901

 3  4  5  6  7  8  9  10  11  12  22  25  29  30  31  32 0
 6-311+G(2d,p)
 ****
 33  36  37 0
 6-311+G(2d,p)
 ****
 1  2  13  14  15  16  17  18  19  20  21  23  24  26 0
 3-21G
 ****
 27  28  34  35  38  39  40  41  42  43  44  45  46  47  48 0
 3-21G
 ****


