%nproc=1
%NoSave
%Mem=1900MB
#P OB98/GEN NMR

erre ene a

0 1
  C     1389.155    1302.041     173.016
  O     1389.589    1300.751     173.395
  H     1390.022    1302.633     172.692
  H     1388.691    1302.546     173.874
  H     1388.443    1301.979     172.195
  P     1388.449    1299.663     173.704
  C     1389.424    1298.090     171.883
  O     1388.275    1298.789     172.371
  C     1389.177    1296.574     171.906
  O     1387.936    1296.270     171.213
  C     1390.259    1295.750     171.234
  O     1391.362    1295.521     172.095
  C     1389.495    1294.459     170.944
  O     1389.383    1293.693     172.168
  C     1388.126    1295.006     170.525
  N     1385.296    1294.093     166.426
  C     1385.112    1293.688     167.725
  N     1384.017    1292.916     167.981
  N     1385.914    1294.005     168.713
  C     1386.963    1294.761     168.299
  C     1387.259    1295.220     167.045
  C     1386.347    1294.873     165.967
  O     1386.445    1295.231     164.797
  N     1388.408    1295.977     167.026
  C     1388.825    1295.942     168.282
  N     1387.998    1295.207     169.087
  O     1387.103    1300.540     173.736
  O     1388.629    1298.894     174.968
  H     1388.942    1294.252     172.826
  H     1386.503    1300.174     174.421
  H     1384.642    1293.813     165.696
  H     1389.717    1296.436     168.636
  H     1387.307    1294.333     170.832
  H     1390.003    1293.830     170.221
  H     1383.388    1292.612     167.265
  H     1390.583    1296.199     170.281
  H     1383.854    1292.643     168.940
  H     1389.047    1296.284     172.951
  H     1390.285    1298.320     172.520
  H     1389.638    1298.423     170.858
  P     1392.837    1295.875     171.538
  C     1393.103    1297.530     173.516
  O     1393.172    1297.334     172.107
  O     1392.579    1296.129     169.979
  O     1393.867    1294.813     171.786
  H     1393.406    1295.984     169.488
  H     1393.350    1298.545     173.747
  H     1393.796    1296.875     174.002
  H     1392.111    1297.318     173.858

 6  7  8  9  10  11  12  13  14  15  26  29  33  34 0
 6-311+G(2d,p)
 ****
 36  38  39  40  41 0
 6-311+G(2d,p)
 ****
 1  2  3  4  5  16  17  18  19  20  21  22  23  24  25 0
 3-21G
 ****
 27  28  30  31  32  35  37  42  43  44  45  46  47 0
 3-21G
 ****
 48  49 0
 3-21G
 ****


