%nproc=1
%NoSave
%Mem=1900MB
#P OB98/GEN NMR

erre ene a

0 1
  C     -243.886    -401.503    -222.559
  O     -242.618    -400.976    -222.890
  H     -244.117    -401.298    -221.511
  H     -244.642    -401.025    -223.187
  H     -243.907    -402.580    -222.741
  P     -241.365    -401.522    -222.050
  C     -239.743    -402.388    -223.877
  O     -240.718    -402.724    -222.899
  C     -240.227    -402.809    -225.262
  O     -241.408    -402.035    -225.588
  C     -239.199    -402.609    -226.389
  O     -238.938    -403.851    -227.048
  C     -239.893    -401.679    -227.373
  O     -239.660    -402.028    -228.737
  C     -241.364    -401.804    -227.002
  N     -246.024    -399.940    -227.878
  C     -245.612    -401.028    -227.194
  N     -244.353    -401.413    -226.905
  C     -243.464    -400.521    -227.381
  C     -243.734    -399.353    -228.076
  C     -245.085    -399.078    -228.340
  N     -245.502    -397.997    -229.084
  N     -242.561    -398.701    -228.407
  C     -241.600    -399.485    -227.961
  N     -242.100    -400.605    -227.350
  O     -242.053    -402.268    -220.809
  O     -240.402    -400.477    -221.599
  H     -238.725    -402.302    -228.800
  H     -241.622    -401.989    -219.980
  H     -246.400    -401.685    -226.835
  H     -240.538    -399.314    -228.088
  H     -241.845    -402.657    -227.499
  H     -239.527    -400.657    -227.212
  H     -238.260    -402.174    -226.031
  H     -240.535    -403.862    -225.213
  H     -238.806    -402.911    -223.655
  H     -246.478    -397.942    -229.323
  H     -244.804    -397.417    -229.523
  H     -239.559    -401.310    -223.841
  P     -237.886    -404.839    -226.336
  C     -239.178    -407.086    -226.095
  O     -238.732    -405.890    -225.467
  O     -237.214    -403.902    -225.224
  O     -236.877    -405.421    -227.263
  H     -236.314    -404.219    -225.021
  H     -239.723    -407.677    -225.389
  H     -238.333    -407.640    -226.448
  H     -239.813    -406.840    -226.920

 6  7  8  9  10  11  12  13  14  15  25  28  32  33  34  35 0
 6-311+G(2d,p)
 ****
 36  39  40 0
 6-311+G(2d,p)
 ****
 1  2  3  4  5  16  17  18  19  20  21  22  23  24 0
 3-21G
 ****
 26  27  29  30  31  37  38  41  42  43  44  45  46  47  48 0
 3-21G
 ****


