%nproc=1
%NoSave
%Mem=1900MB
#P OB98/GEN NMR

erre ene a

0 1
  C     -209.832    -399.071    1189.203
  O     -210.404    -399.996    1190.107
  H     -209.874    -399.504    1188.198
  H     -208.793    -398.878    1189.459
  H     -210.402    -398.132    1189.210
  P     -210.604    -399.500    1191.619
  C     -211.971    -400.358    1193.702
  O     -211.628    -400.521    1192.318
  C     -213.205    -401.203    1194.029
  O     -214.319    -400.818    1193.198
  C     -213.034    -402.678    1193.769
  O     -212.183    -403.312    1194.703
  C     -214.488    -403.141    1193.837
  O     -214.919    -403.282    1195.209
  C     -215.219    -401.956    1193.157
  N     -215.646    -402.275    1191.781
  C     -216.770    -403.104    1191.673
  O     -217.351    -403.517    1192.671
  N     -217.181    -403.480    1190.417
  C     -216.542    -403.047    1189.372
  N     -217.000    -403.450    1188.150
  C     -215.377    -402.147    1189.440
  C     -214.976    -401.808    1190.667
  O     -211.477    -398.169    1191.438
  O     -209.333    -399.313    1192.399
  H     -215.900    -403.190    1195.206
  H     -212.283    -398.314    1190.912
  H     -214.876    -401.800    1188.537
  H     -214.110    -401.163    1190.807
  H     -216.126    -401.679    1193.715
  H     -214.640    -404.105    1193.367
  H     -212.689    -402.846    1192.739
  H     -213.487    -400.998    1195.074
  H     -217.796    -404.085    1188.135
  H     -212.127    -399.307    1193.935
  H     -216.568    -403.200    1187.256
  H     -211.113    -400.711    1194.292
  P     -211.374    -404.653    1194.310
  C     -209.081    -405.662    1194.872
  O     -209.935    -404.510    1194.951
  O     -211.379    -404.986    1192.836
  O     -212.072    -405.772    1195.220
  H     -212.007    -405.618    1196.173
  H     -208.142    -405.443    1195.337
  H     -208.920    -405.917    1193.845
  H     -209.545    -406.485    1195.375

 6  7  8  9  10  11  12  13  14  15  16  26  30  31  32  33  35 0
 6-311+G(2d,p)
 ****
 37  38 0
 6-311+G(2d,p)
 ****
 1  2  3  4  5  17  18  19  20  21  22  23  24  25 0
 3-21G
 ****
 27  28  29  34  36  39  40  41  42  43  44  45  46 0
 3-21G
 ****


