%nproc=1
%NoSave
%Mem=1900MB
#P OB98/GEN NMR

erre ene a

0 1
  C      412.899    -534.674    -179.750
  O      412.931    -533.410    -179.114
  H      413.697    -535.293    -179.334
  H      413.064    -534.563    -180.826
  H      411.941    -535.168    -179.567
  P      411.880    -532.294    -179.577
  C      410.365    -532.840    -177.558
  O      410.460    -532.739    -178.973
  C      409.007    -532.320    -177.082
  O      408.819    -530.953    -177.507
  C      407.811    -533.104    -177.614
  O      407.604    -534.278    -176.847
  C      406.703    -532.080    -177.428
  O      406.325    -532.028    -176.036
  C      407.413    -530.770    -177.825
  N      406.367    -527.044    -181.106
  C      406.254    -527.067    -179.730
  N      405.762    -525.950    -179.150
  N      406.581    -528.097    -178.995
  C      406.987    -529.167    -179.717
  C      407.124    -529.267    -181.079
  C      406.824    -528.100    -181.883
  O      406.935    -528.032    -183.102
  N      407.472    -530.540    -181.458
  C      407.600    -531.191    -180.319
  N      407.307    -530.404    -179.228
  O      411.848    -531.991    -181.044
  O      412.259    -531.009    -178.705
  H      405.773    -531.232    -175.923
  H      412.891    -530.436    -179.178
  H      406.093    -526.223    -181.624
  H      407.904    -532.227    -180.221
  H      407.051    -529.912    -177.246
  H      405.808    -532.316    -177.999
  H      405.357    -525.189    -179.670
  H      407.916    -533.320    -178.684
  H      405.619    -525.975    -178.148
  H      409.019    -532.314    -175.982
  H      411.177    -532.244    -177.128
  H      410.488    -533.882    -177.241
  P      406.774    -535.526    -177.432
  C      408.787    -537.006    -178.105
  O      407.724    -536.179    -178.546
  O      405.400    -535.202    -177.897
  O      406.829    -536.617    -176.265
  H      406.121    -536.490    -175.587
  H      409.332    -537.369    -178.952
  H      408.390    -537.834    -177.555
  H      409.442    -536.440    -177.475

 6  7  8  9  10  11  12  13  14  15  26  29  33  34 0
 6-311+G(2d,p)
 ****
 36  38  39  40  41 0
 6-311+G(2d,p)
 ****
 1  2  3  4  5  16  17  18  19  20  21  22  23  24  25 0
 3-21G
 ****
 27  28  30  31  32  35  37  42  43  44  45  46  47 0
 3-21G
 ****
 48  49 0
 3-21G
 ****


