%nproc=1
%NoSave
%Mem=1900MB
#P OB98/GEN NMR

erre ene a

0 1
  C      432.284     542.314    -359.665
  O      433.189     541.520    -360.408
  H      432.829     542.914    -358.925
  H      431.764     542.988    -360.347
  H      431.549     541.680    -359.162
  P      434.057     540.448    -359.589
  C      432.607     538.392    -360.240
  O      433.041     539.264    -359.207
  C      432.824     536.939    -359.820
  O      434.147     536.784    -359.261
  C      431.858     536.453    -358.744
  O      430.607     536.065    -359.283
  C      432.619     535.249    -358.213
  O      432.491     534.147    -359.127
  C      434.069     535.776    -358.208
  N      435.207     534.822    -353.316
  C      434.825     534.014    -354.325
  N      434.533     534.349    -355.602
  C      434.676     535.668    -355.788
  C      435.049     536.617    -354.858
  C      435.334     536.146    -353.563
  N      435.713     536.972    -352.523
  N      435.052     537.883    -355.413
  C      434.710     537.691    -356.675
  N      434.464     536.370    -356.947
  O      434.317     541.169    -358.184
  O      435.320     539.999    -360.245
  H      432.890     533.370    -358.686
  H      435.086     540.764    -357.739
  H      434.735     532.958    -354.073
  H      434.633     538.472    -357.423
  H      434.798     534.994    -358.451
  H      432.257     534.911    -357.242
  H      431.738     537.186    -357.944
  H      432.764     536.314    -360.716
  H      433.179     538.594    -361.151
  H      435.711     536.567    -351.601
  H      435.662     537.972    -352.660
  H      431.546     538.571    -360.445
  P      429.395     535.836    -358.257
  C      428.224     538.139    -358.565
  O      429.001     537.292    -357.715
  O      430.115     535.152    -357.002
  O      428.274     535.007    -358.793
  H      429.487     534.604    -356.498
  H      428.042     539.070    -358.070
  H      427.291     537.664    -358.786
  H      428.758     538.317    -359.475

 6  7  8  9  10  11  12  13  14  15  25  28  32  33  34  35 0
 6-311+G(2d,p)
 ****
 36  39  40 0
 6-311+G(2d,p)
 ****
 1  2  3  4  5  16  17  18  19  20  21  22  23  24 0
 3-21G
 ****
 26  27  29  30  31  37  38  41  42  43  44  45  46  47 0
 3-21G
 ****
 48 0
 3-21G
 ****


