%nproc=1
%NoSave
%Mem=1900MB
#P OB98/GEN NMR

erre ene a

0 1
  C        6.716     905.322     270.968
  O        7.567     906.412     271.262
  P        6.895     907.861     271.426
  C        5.609     909.480     269.837
  O        6.494     908.372     269.962
  C        6.067     910.365     268.671
  O        5.902     909.684     267.411
  C        5.267     911.661     268.547
  O        5.693     912.623     269.497
  C        5.548     912.059     267.103
  O        6.804     912.756     266.992
  C        5.633     910.685     266.404
  N        4.434     910.370     265.629
  C        4.238     911.111     264.477
  O        5.011     912.009     264.119
  N        3.109     910.829     263.764
  C        2.142     909.932     264.119
  O        1.116     909.766     263.463
  C        2.379     909.193     265.366
  C        3.490     909.444     266.059
  O        8.111     908.803     271.845
  O        5.781     907.915     272.420
  H        6.674     913.627     267.420
  H        7.806     909.486     272.477
  H        2.954     911.339     262.910
  H        1.640     908.473     265.670
  H        3.690     908.926     266.991
  H        6.490     910.662     265.722
  H        4.781     912.721     266.703
  H        4.191     911.441     268.656
  H        7.133     910.592     268.803
  H        5.610     910.052     270.760
  H        4.598     909.100     269.657
  P        4.648     913.795     269.853
  C        3.384     915.544     268.367
  O        4.421     914.592     268.472
  O        5.560     914.757     270.748
  O        3.425     913.295     270.545
  H        6.500     914.740     270.458
  H        3.242     916.089     269.307
  H        2.460     915.044     268.095
  H        3.640     916.263     267.587
  H        7.297     904.427     270.888
  H        6.211     905.503     270.042
  H        5.996     905.210     271.751

 3  4  5  6  7  8  9  10  11  12  13  23  28  29  30  31  32 0
 6-311+G(2d,p)
 ****
 33  34 0
 6-311+G(2d,p)
 ****
 1  2  14  15  16  17  18  19  20  21  22  24  25  26 0
 3-21G
 ****
 27  35  36  37  38  39  40  41  42  43  44  45 0
 3-21G
 ****


