%nproc=1
%NoSave
%Mem=1900MB
#P OB98/GEN NMR

erre ene a

0 1
  C     -332.242       3.521     422.388
  O     -331.301       2.441     422.440
  P     -331.199       1.434     423.684
  C     -332.083      -0.533     422.275
  O     -332.223       0.224     423.472
  C     -333.396      -1.213     421.878
  O     -334.454      -0.243     421.765
  C     -333.364      -1.935     420.538
  O     -332.676      -3.167     420.634
  C     -334.855      -2.058     420.233
  O     -335.431      -3.183     420.915
  C     -335.407      -0.735     420.798
  N     -335.671       0.252     419.760
  C     -336.853       0.092     419.033
  O     -337.588      -0.876     419.240
  N     -337.163       1.020     418.068
  C     -336.329       1.978     417.803
  N     -336.695       2.869     416.842
  C     -335.030       2.128     418.479
  C     -334.769       1.241     419.440
  O     -331.315       2.106     425.017
  O     -329.763       0.738     423.538
  H     -335.001      -3.981     420.549
  H     -329.422       0.521     424.425
  H     -334.351       2.923     418.213
  H     -333.841       1.285     419.998
  H     -336.334      -0.914     421.356
  H     -335.058      -2.193     419.165
  H     -332.892      -1.293     419.782
  H     -333.671      -1.912     422.680
  H     -337.591       2.741     416.401
  H     -331.318      -1.301     422.444
  H     -336.118       3.649     416.561
  H     -331.741       0.130     421.474
  P     -331.075      -3.182     420.681
  C     -331.019      -4.356     422.962
  O     -330.634      -3.215     422.220
  O     -330.395      -2.148     419.847
  O     -330.697      -4.657     420.178
  H     -329.843      -4.623     419.712
  H     -330.351      -4.455     423.823
  H     -330.955      -5.264     422.354
  H     -332.044      -4.227     423.319
  H     -332.124       4.053     421.467
  H     -332.068       4.186     423.208
  H     -333.236       3.131     422.450

 3  4  5  6  7  8  9  10  11  12  13  23  27  28  29  30  32 0
 6-311+G(2d,p)
 ****
 34  35 0
 6-311+G(2d,p)
 ****
 1  2  14  15  16  17  18  19  20  21  22  24  25  26 0
 3-21G
 ****
 31  33  36  37  38  39  40  41  42  43  44  45  46 0
 3-21G
 ****


