%nproc=1
%NoSave
%Mem=1900MB
#P OB98/GEN NMR

erre ene a

0 1
  C     -439.032     208.776     248.968
  O     -439.158     207.786     247.969
  H     -438.215     208.494     249.636
  H     -439.952     208.850     249.552
  H     -438.796     209.745     248.518
  P     -440.333     207.927     246.888
  C     -438.743     208.377     244.905
  O     -439.783     208.892     245.729
  C     -438.863     208.946     243.486
  O     -440.127     208.501     242.937
  C     -438.838     210.480     243.465
  O     -437.866     211.008     242.567
  C     -440.300     210.846     243.234
  O     -440.495     212.102     242.615
  C     -440.838     209.650     242.443
  N     -442.281     209.458     242.574
  C     -443.108     210.458     242.067
  O     -442.718     211.480     241.508
  N     -444.454     210.244     242.218
  C     -445.037     209.169     242.819
  O     -446.250     209.034     242.920
  C     -444.111     208.162     243.360
  C     -442.797     208.350     243.216
  O     -441.668     208.307     247.433
  O     -440.375     206.496     246.173
  H     -441.419     212.121     242.290
  H     -441.153     205.998     246.488
  H     -445.064     210.953     241.840
  H     -444.539     207.302     243.856
  H     -442.086     207.626     243.602
  H     -440.615     209.759     241.380
  H     -440.804     210.887     244.206
  H     -438.523     210.878     244.436
  H     -438.064     208.519     242.867
  H     -438.839     207.286     244.886
  H     -437.770     208.643     245.331
  P     -436.445     211.595     242.995
  C     -434.802     209.888     241.854
  O     -435.391     210.394     243.044
  O     -436.451     212.533     244.153
  O     -435.973     212.430     241.698
  H     -435.441     213.179     242.033
  H     -434.129     209.093     242.099
  H     -434.264     210.671     241.361
  H     -435.569     209.519     241.205

 6  7  8  9  10  11  12  13  14  15  16  26  31  32  33  34  35 0
 6-311+G(2d,p)
 ****
 36  37 0
 6-311+G(2d,p)
 ****
 1  2  3  4  5  17  18  19  20  21  22  23  24  25 0
 3-21G
 ****
 27  28  29  30  38  39  40  41  42  43  44  45 0
 3-21G
 ****


