%nproc=1
%NoSave
%Mem=1900MB
#P OB98/GEN NMR

erre ene a

0 1
  C       -1.076      88.635     263.250
  O       -0.037      89.027     262.376
  H       -0.691      88.639     264.274
  H       -1.409      87.624     263.004
  H       -1.915      89.333     263.185
  P       -0.443      89.267     260.838
  C       -1.491      87.706     259.007
  O       -0.905      87.833     260.291
  C       -2.874      87.064     259.110
  O       -2.713      85.660     259.428
  C       -3.766      87.686     260.184
  O       -5.111      87.704     259.706
  C       -3.643      86.722     261.351
  O       -4.765      86.803     262.229
  C       -3.466      85.382     260.626
  N       -2.795      84.384     261.457
  C       -3.586      83.706     262.390
  O       -4.784      83.975     262.497
  N       -2.999      82.775     263.206
  C       -1.717      82.586     263.149
  N       -1.191      81.665     264.001
  C       -0.834      83.317     262.219
  C       -1.434      84.182     261.405
  O        0.988      89.493     260.158
  O       -1.413      90.379     260.627
  H       -4.674      86.093     262.904
  H        1.676      88.890     260.487
  H        0.231      83.135     262.219
  H       -0.863      84.757     260.684
  H       -4.439      84.977     260.322
  H       -2.744      86.957     261.936
  H       -3.465      88.695     260.467
  H       -3.352      87.110     258.124
  H       -1.828      81.200     264.636
  H       -0.854      87.096     258.358
  H       -0.203      81.475     264.079
  H       -1.567      88.706     258.569
  P       -6.046      88.962     260.041
  C       -8.362      89.373     261.097
  O       -7.279      88.469     260.942
  O       -6.416      89.822     258.879
  O       -5.162      89.790     261.097
  H       -5.284      90.741     260.909
  H       -9.113      88.927     261.715
  H       -8.778      89.599     260.137
  H       -8.012      90.274     261.555

 6  7  8  9  10  11  12  13  14  15  16  26  30  31  32  33  35 0
 6-311+G(2d,p)
 ****
 37  38 0
 6-311+G(2d,p)
 ****
 1  2  3  4  5  17  18  19  20  21  22  23  24  25 0
 3-21G
 ****
 27  28  29  34  36  39  40  41  42  43  44  45  46 0
 3-21G
 ****


