%nproc=1
%NoSave
%Mem=1900MB
#P OB98/GEN NMR

erre ene a

0 1
  C     -892.820    -484.335     400.537
  O     -893.020    -485.586     401.211
  P     -894.190    -485.778     402.306
  C     -895.610    -487.414     400.912
  O     -894.860    -487.224     402.095
  C     -896.090    -488.873     400.764
  O     -894.970    -489.761     400.565
  C     -896.850    -489.396     401.971
  O     -898.180    -488.920     401.960
  C     -896.690    -490.923     401.767
  O     -897.660    -491.391     400.814
  C     -895.280    -491.019     401.198
  N     -893.170    -494.773     403.957
  C     -894.120    -494.790     403.020
  N     -894.660    -493.749     402.326
  C     -894.030    -492.591     402.692
  C     -893.040    -492.416     403.661
  C     -892.610    -493.588     404.309
  N     -891.630    -493.579     405.289
  N     -892.700    -491.110     403.763
  C     -893.450    -490.478     402.876
  N     -894.270    -491.343     402.195
  O     -895.180    -484.646     402.359
  O     -893.410    -485.904     403.697
  H     -897.400    -491.075     399.941
  H     -894.000    -485.603     404.435
  H     -894.540    -495.763     402.784
  H     -893.430    -489.407     402.671
  H     -895.220    -491.801     400.409
  H     -896.860    -491.476     402.686
  H     -896.330    -489.100     402.897
  H     -896.710    -488.935     399.854
  H     -894.970    -487.162     400.044
  H     -891.390    -494.446     405.741
  H     -891.220    -492.695     405.572
  H     -896.470    -486.743     400.900
  P     -898.860    -488.449     403.342
  C     -899.250    -486.038     402.603
  O     -899.860    -487.245     402.984
  O     -897.940    -488.202     404.484
  O     -899.880    -489.655     403.702
  H     -900.000    -489.715     404.654
  H     -898.890    -485.496     403.487
  H     -899.990    -485.424     402.069
  H     -898.410    -486.231     401.928
  H     -891.998    -484.423     399.857
  H     -892.607    -483.572     401.257
  H     -893.705    -484.077     399.995

 3  4  5  6  7  8  9  10  11  12  22  25  29  30  31  32 0
 6-311+G(2d,p)
 ****
 33  36  37 0
 6-311+G(2d,p)
 ****
 1  2  13  14  15  16  17  18  19  20  21  23  24  26 0
 3-21G
 ****
 27  28  34  35  38  39  40  41  42  43  44  45  46  47  48 0
 3-21G
 ****


