%nproc=1
%NoSave
%Mem=1900MB
#P OB98/GEN NMR

erre ene a

0 1
  C       15.815    -148.893     165.910
  O       17.206    -148.884     166.159
  P       17.957    -147.562     166.680
  C       17.143    -146.202     164.651
  O       18.269    -146.694     165.364
  C       17.437    -146.093     163.152
  O       16.190    -145.903     162.426
  C       18.378    -144.945     162.764
  O       19.140    -145.410     161.648
  C       17.408    -143.858     162.336
  O       18.023    -142.859     161.529
  C       16.328    -144.698     161.641
  N       15.065    -143.972     161.522
  C       14.926    -143.139     160.404
  O       15.866    -142.984     159.621
  N       13.747    -142.457     160.232
  C       12.829    -142.521     161.151
  N       11.677    -141.830     160.923
  C       12.988    -143.286     162.400
  C       14.112    -143.989     162.514
  O       19.132    -147.805     167.567
  O       16.791    -146.716     167.379
  H       17.330    -142.225     161.241
  H       16.581    -147.090     168.274
  H       12.220    -143.267     163.161
  H       14.321    -144.585     163.395
  H       16.653    -144.993     160.637
  H       16.994    -143.360     163.222
  H       19.035    -144.624     163.574
  H       17.860    -147.051     162.824
  H       11.603    -141.331     160.042
  H       16.910    -145.202     165.036
  H       10.875    -141.880     161.527
  H       16.273    -146.841     164.835
  P       20.655    -145.910     161.821
  C       21.575    -143.532     161.600
  O       21.589    -144.846     161.075
  O       20.895    -147.337     161.438
  O       20.980    -145.666     163.371
  H       21.780    -146.170     163.621
  H       22.434    -142.981     161.212
  H       21.624    -143.545     162.694
  H       20.655    -143.024     161.286
  H       15.519    -149.864     165.573
  H       15.583    -148.168     165.158
  H       15.290    -148.653     166.811

 3  4  5  6  7  8  9  10  11  12  13  23  27  28  29  30  32 0
 6-311+G(2d,p)
 ****
 34  35 0
 6-311+G(2d,p)
 ****
 1  2  14  15  16  17  18  19  20  21  22  24  25  26 0
 3-21G
 ****
 31  33  36  37  38  39  40  41  42  43  44  45  46 0
 3-21G
 ****


