%nproc=1
%NoSave
%Mem=1900MB
#P OB98/GEN NMR

erre ene a

0 1
  C     1590.281    -367.921     217.502
  O     1591.172    -366.986     216.921
  P     1591.086    -365.406     217.258
  C     1589.054    -363.842     217.093
  O     1589.756    -364.912     216.481
  C     1587.664    -363.716     216.508
  O     1586.870    -364.834     217.000
  C     1586.873    -362.482     216.866
  O     1587.133    -361.341     216.070
  C     1585.445    -362.942     216.627
  O     1585.154    -362.904     215.214
  C     1585.475    -364.379     217.111
  N     1581.384    -364.906     220.137
  C     1581.511    -364.822     218.802
  N     1582.639    -364.679     218.056
  C     1583.730    -364.634     218.855
  C     1583.739    -364.700     220.244
  C     1582.499    -364.864     220.893
  N     1582.379    -364.956     222.259
  N     1585.052    -364.626     220.706
  C     1585.778    -364.514     219.632
  N     1585.035    -364.526     218.486
  O     1592.338    -364.653     216.970
  O     1590.646    -365.362     218.805
  H     1584.873    -362.002     215.021
  H     1590.815    -364.457     219.143
  H     1580.592    -364.881     218.231
  H     1586.871    -364.439     219.606
  H     1584.893    -365.072     216.473
  H     1584.684    -362.320     217.118
  H     1586.966    -362.223     217.948
  H     1587.740    -363.840     215.408
  H     1589.605    -362.922     216.879
  H     1581.455    -365.179     222.639
  H     1583.228    -365.070     222.812
  H     1589.019    -363.975     218.173
  P     1586.803    -359.897     216.679
  C     1584.913    -359.350     218.412
  O     1585.302    -359.984     217.217
  O     1587.080    -358.740     215.788
  O     1587.667    -359.867     218.035
  H     1587.385    -360.516     218.714
  H     1583.811    -359.382     218.488
  H     1585.203    -358.289     218.372
  H     1585.340    -359.823     219.267
  H     1590.512    -368.903     217.145
  H     1589.276    -367.671     217.233
  H     1590.382    -367.895     218.567

 3  4  5  6  7  8  9  10  11  12  22  25  29  30  31  32 0
 6-311+G(2d,p)
 ****
 33  36  37 0
 6-311+G(2d,p)
 ****
 1  2  13  14  15  16  17  18  19  20  21  23  24  26 0
 3-21G
 ****
 27  28  34  35  38  39  40  41  42  43  44  45  46  47  48 0
 3-21G
 ****


