%nproc=1
%NoSave
%Mem=1900MB
#P OB98/GEN NMR

erre ene a

0 1
  C     -509.068     109.032     367.297
  O     -510.463     109.194     367.471
  H     -508.882     108.050     366.858
  H     -508.560     109.091     368.265
  H     -508.678     109.802     366.626
  P     -510.945     110.592     368.095
  C     -512.117     109.673     370.235
  O     -511.011     110.369     369.683
  C     -512.088     109.753     371.767
  O     -510.881     109.090     372.249
  C     -512.054     111.192     372.314
  O     -512.687     111.190     373.605
  C     -510.558     111.422     372.478
  O     -510.302     112.561     373.270
  C     -510.152     110.061     373.038
  N     -505.609     110.998     375.189
  C     -506.865     111.356     375.544
  N     -508.025     111.058     374.929
  C     -507.810     110.292     373.849
  C     -506.588     109.836     373.369
  C     -505.446     110.227     374.087
  N     -504.170     109.869     373.725
  N     -506.765     109.072     372.226
  C     -508.071     109.062     372.028
  N     -508.737     109.793     372.973
  O     -512.483     110.676     367.659
  O     -510.173     111.794     367.659
  H     -510.488     113.382     372.769
  H     -512.567     111.202     366.840
  H     -506.941     111.965     376.443
  H     -508.578     108.558     371.212
  H     -510.468     109.940     374.084
  H     -510.082     111.603     371.514
  H     -512.549     111.916     371.665
  H     -512.942     109.195     372.171
  H     -512.061     108.624     369.917
  H     -513.049     110.111     369.866
  H     -503.402     110.204     374.288
  H     -504.032     109.309     372.898
  P     -514.211     111.678     373.727
  C     -513.533     114.107     374.424
  O     -514.258     113.272     373.537
  O     -514.487     111.529     375.302
  O     -515.212     110.895     372.940
  H     -515.433     111.364     375.453
  H     -513.679     115.131     374.150
  H     -512.492     113.868     374.368
  H     -513.881     113.953     375.424

 6  7  8  9  10  11  12  13  14  15  25  28  32  33  34  35 0
 6-311+G(2d,p)
 ****
 36  37  40 0
 6-311+G(2d,p)
 ****
 1  2  3  4  5  16  17  18  19  20  21  22  23  24 0
 3-21G
 ****
 26  27  29  30  31  38  39 41  42  43  44  45  46  47  48 0
 3-21G
 ****


