%nproc=1
%NoSave
%Mem=1900MB
#P OB98/GEN NMR

erre ene a

0 1
  C      185.203     120.227      73.398
  O      185.757     121.123      74.347
  P      185.951     120.577      75.845
  C      184.470     122.528      76.733
  O      184.714     121.125      76.703
  C      182.973     122.806      76.590
  O      182.468     122.182      75.390
  C      182.116     122.256      77.723
  O      182.229     123.060      78.886
  C      180.740     122.275      77.066
  O      180.203     123.608      77.084
  C      181.069     121.858      75.622
  N      177.565     118.190      74.909
  C      177.447     119.514      75.162
  N      178.429     120.420      75.362
  C      179.635     119.841      75.274
  C      179.911     118.503      75.045
  C      178.809     117.653      74.855
  N      178.933     116.304      74.604
  N      181.272     118.272      75.048
  C      181.809     119.457      75.262
  N      180.862     120.439      75.389
  O      187.187     121.438      76.386
  O      186.201     119.105      75.953
  H      180.205     123.909      78.014
  H      187.734     120.911      77.001
  H      176.432     119.896      75.206
  H      182.871     119.653      75.325
  H      180.475     122.405      74.882
  H      180.014     121.621      77.564
  H      182.403     121.223      77.958
  H      182.836     123.890      76.496
  H      184.998     123.009      75.904
  H      178.092     115.744      74.630
  H      179.847     115.885      74.704
  H      184.854     122.933      77.672
  P      182.765     122.349      80.224
  C      181.086     123.754      81.574
  O      181.516     122.446      81.231
  O      183.766     123.455      80.799
  O      183.339     120.990      80.026
  H      183.362     124.341      80.815
  H      180.205     123.672      82.216
  H      180.818     124.312      80.672
  H      181.876     124.277      82.118
  H      185.129     120.714      72.448
  H      184.229     119.924      73.720
  H      185.833     119.367      73.309

 3  4  5  6  7  8  9  10  11  12  22  25  29  30  31  32 0
 6-311+G(2d,p)
 ****
 33  36  37 0
 6-311+G(2d,p)
 ****
 1  2  13  14  15  16  17  18  19  20  21  23  24  26 0
 3-21G
 ****
 27  28  34  35  38  39  40  41  42  43  44  45  46  47  48 0
 3-21G
 ****


