%nproc=1
%NoSave
%Mem=1900MB
#P OB98/GEN NMR

erre ene a

0 1
  C      323.496    -276.273    1160.180
  O      324.853    -276.318    1159.796
  H      323.349    -276.937    1161.040
  H      322.863    -276.618    1159.360
  H      323.204    -275.259    1160.473
  P      325.405    -275.228    1158.760
  C      326.870    -273.848    1160.378
  O      325.664    -273.883    1159.602
  C      327.621    -272.524    1160.138
  O      326.781    -271.417    1160.615
  C      328.970    -272.430    1160.876
  O      329.829    -271.619    1160.070
  C      328.582    -271.707    1162.146
  O      329.708    -271.162    1162.792
  C      327.561    -270.702    1161.604
  N      326.721    -270.142    1162.655
  C      326.986    -268.828    1163.031
  O      327.906    -268.158    1162.555
  N      326.192    -268.315    1164.025
  C      325.218    -268.991    1164.706
  O      324.565    -268.490    1165.609
  C      325.010    -270.384    1164.293
  C      325.749    -270.889    1163.301
  O      324.583    -275.030    1157.524
  O      326.890    -275.722    1158.414
  H      330.192    -270.553    1162.190
  H      327.130    -275.453    1157.511
  H      326.378    -267.358    1164.303
  H      324.259    -270.956    1164.808
  H      325.618    -271.916    1162.967
  H      328.071    -269.871    1161.089
  H      328.099    -272.391    1162.853
  H      329.423    -273.411    1161.051
  H      327.741    -272.383    1159.056
  H      327.494    -274.687    1160.070
  H      326.617    -273.949    1161.440
  P      330.618    -272.208    1158.789
  C      328.895    -271.383    1157.034
  O      329.538    -272.515    1157.629
  O      331.531    -273.348    1159.099
  O      331.438    -270.949    1158.202
  H      332.234    -271.279    1157.745
  H      328.207    -271.716    1156.285
  H      329.631    -270.750    1156.585
  H      328.366    -270.837    1157.787

 6  7  8  9  10  11  12  13  14  15  16  26  31  32  33  34  35 0
 6-311+G(2d,p)
 ****
 36  37 0
 6-311+G(2d,p)
 ****
 1  2  3  4  5  17  18  19  20  21  22  23  24  25 0
 3-21G
 ****
 27  28  29  30  38  39  40  41  42  43  44  45 0
 3-21G
 ****


