%nproc=1
%NoSave
%Mem=1900MB
#P OB98/GEN NMR

erre ene a

0 1
  C      813.423    -892.300     798.389
  O      814.629    -891.570     798.301
  H      812.820    -891.880     799.202
  H      813.632    -893.350     798.613
  H      812.865    -892.220     797.450
  P      815.681    -892.050     797.180
  C      817.617    -891.300     798.747
  O      817.021    -892.360     798.006
  C      818.615    -891.860     799.764
  O      817.928    -892.560     800.803
  C      819.636    -892.820     799.171
  O      820.707    -892.100     798.596
  C      820.075    -893.550     800.434
  O      821.053    -892.770     801.155
  C      818.789    -893.660     801.255
  N      818.127    -898.390     803.151
  C      819.076    -897.450     803.382
  N      819.232    -896.230     802.818
  C      818.243    -896.020     801.898
  C      817.231    -896.900     801.534
  C      817.188    -898.130     802.211
  N      816.237    -899.090     801.963
  N      816.414    -896.340     800.565
  C      816.926    -895.130     800.371
  N      818.055    -894.900     801.133
  O      815.830    -891.140     796.003
  O      815.124    -893.520     796.842
  H      821.305    -893.290     801.949
  H      814.841    -893.960     797.663
  H      819.815    -897.700     804.134
  H      816.489    -894.370     799.723
  H      818.971    -893.490     802.316
  H      820.539    -894.510     800.217
  H      819.178    -893.530     798.483
  H      819.117    -890.980     800.239
  H      816.832    -890.730     799.257
  H      816.387    -900.000     802.338
  H      815.599    -898.940     801.175
  H      818.118    -890.630     798.024
  P      821.972    -892.870     797.950
  C      823.065    -890.710     797.087
  O      823.170    -891.810     797.983
  O      821.694    -893.510     796.625
  O      822.395    -893.930     799.077
  H      822.966    -894.620     798.685
  H      823.919    -890.075     797.200
  H      822.176    -890.156     797.306
  H      823.021    -891.072     796.081

 6  7  8  9  10  11  12  13  14  15  25  28  32  33  34  35 0
 6-311+G(2d,p)
 ****
 36  39  40 0
 6-311+G(2d,p)
 ****
 1  2  3  4  5  16  17  18  19  20  21  22  23  24 0
 3-21G
 ****
 26  27  29  30  31  37  38  41  42  43  44  45  46  47 0
 3-21G
 ****
 48 0
 3-21G
 ****


