%nproc=1
%NoSave
%Mem=1900MB
#P OB98/GEN NMR

erre ene a

0 1
  C      -28.767      -4.036      15.438
  O      -29.085      -4.974      14.430
  H      -28.067      -3.304      15.028
  H      -28.295      -4.537      16.286
  H      -29.671      -3.517      15.766
  P      -30.060      -6.178      14.843
  C      -32.591      -6.300      15.412
  O      -31.412      -5.509      15.386
  C      -33.282      -6.145      16.762
  O      -32.511      -6.810      17.788
  C      -33.419      -4.703      17.228
  O      -34.486      -4.029      16.585
  C      -33.658      -4.902      18.715
  O      -35.041      -5.172      18.994
  C      -32.778      -6.131      19.032
  N      -31.551      -5.763      19.730
  C      -31.716      -5.275      21.022
  O      -32.815      -5.150      21.561
  N      -30.571      -4.894      21.667
  C      -29.312      -4.917      21.143
  O      -28.336      -4.493      21.748
  C      -29.197      -5.458      19.779
  C      -30.306      -5.841      19.140
  O      -29.369      -6.768      16.160
  O      -30.255      -7.221      13.794
  H      -28.892      -7.591      15.946
  H      -35.212      -6.078      18.671
  H      -30.671      -4.527      22.600
  H      -28.210      -5.497      19.335
  H      -30.248      -6.223      18.125
  H      -33.327      -6.839      19.665
  H      -33.388      -4.015      19.287
  H      -32.471      -4.168      17.091
  H      -34.267      -6.628      16.706
  H      -32.328      -7.353      15.264
  H      -33.250      -5.984      14.597
  P      -34.536      -2.428      16.659
  C      -32.913      -0.567      15.763
  O      -33.095      -1.905      16.185
  O      -34.537      -2.190      18.239
  O      -35.690      -1.829      15.931
  H      -33.995      -2.838      18.722
  H      -31.890      -0.415      15.489
  H      -33.171       0.097      16.562
  H      -33.541      -0.371      14.919

 6  7  8  9  10  11  12  13  14  15  16  27  31  32  33  34  35 0
 6-311+G(2d,p)
 ****
 36  37 0
 6-311+G(2d,p)
 ****
 1  2  3  4  5  17  18  19  20  21  22  23  24  25 0
 3-21G
 ****
 26  28  29  30  38  39  40  41  42  43  44  45 0
 3-21G
 ****


