%nproc=1
%NoSave
%Mem=1900MB
#P OB98/GEN NMR

erre ene a

0 1
  C      614.174     206.455    -134.502
  O      613.289     205.363    -134.763
  P      613.939     203.924    -135.047
  C      612.811     202.837    -132.965
  O      613.014     202.804    -134.379
  C      611.430     202.278    -132.613
  O      610.384     203.166    -133.050
  C      611.132     200.948    -133.285
  O      611.797     199.890    -132.621
  C      609.614     200.879    -133.203
  O      609.177     200.235    -131.992
  C      609.196     202.369    -133.212
  N      608.477     202.742    -134.423
  C      607.098     202.468    -134.421
  O      606.578     201.920    -133.451
  N      606.371     202.800    -135.532
  C      606.956     203.327    -136.566
  N      606.181     203.627    -137.639
  C      608.413     203.611    -136.618
  C      609.099     203.294    -135.515
  O      615.248     203.928    -134.122
  O      614.283     203.691    -136.485
  H      609.757     199.450    -131.886
  H      615.957     203.414    -134.542
  H      608.858     204.047    -137.493
  H      610.169     203.462    -135.459
  H      608.548     202.596    -132.352
  H      609.189     200.305    -134.030
  H      611.442     200.985    -134.344
  H      611.367     202.167    -131.516
  H      605.193     203.416    -137.575
  H      612.909     203.860    -132.591
  H      606.533     204.035    -138.488
  H      613.603     202.255    -132.482
  P      611.761     198.441    -133.301
  C      614.324     198.564    -133.491
  O      613.223     197.825    -133.023
  O      611.867     198.813    -134.862
  O      610.596     197.569    -133.005
  H      611.768     198.001    -135.399
  H      615.235     198.147    -133.062
  H      614.244     199.614    -133.190
  H      614.383     198.491    -134.588
  H      613.603     207.344    -134.332
  H      614.819     206.600    -135.343
  H      614.762     206.238    -133.635

 3  4  5  6  7  8  9  10  11  12  13  21  23  27  28  29  30  32 0
 6-311+G(2d,p)
 ****
 34  35 0
 6-311+G(2d,p)
 ****
 1  2  14  15  16  17  18  19  20  22  24  25  26 0
 3-21G
 ****
 31  33  36  37  38  39  40  41  42  43  44  45  46 0
 3-21G
 ****


