%nproc=1
%NoSave
%Mem=1900MB
#P OB98/GEN NMR

erre ene a

0 1
  C      -70.015      21.708     194.631
  O      -69.859      22.029     193.251
  P      -69.574      23.487     192.675
  C      -71.853      24.652     193.275
  O      -70.453      24.541     193.494
  C      -72.382      26.010     193.761
  O      -73.834      26.029     193.607
  C      -72.082      26.261     195.244
  O      -71.661      27.592     195.522
  C      -73.347      25.776     195.932
  O      -73.511      26.292     197.244
  C      -74.424      26.158     194.920
  N      -79.377      25.965     196.142
  C      -78.469      26.988     196.326
  N      -78.929      28.104     196.929
  N      -77.216      26.919     195.967
  C      -76.866      25.721     195.449
  C      -77.670      24.626     195.230
  C      -79.068      24.731     195.584
  O      -79.920      23.862     195.424
  N      -76.962      23.590     194.675
  C      -75.731      24.050     194.578
  N      -75.624      25.346     195.028
  O      -69.583      23.615     191.189
  O      -68.075      23.809     193.178
  H      -73.557      27.264     197.178
  H      -67.671      24.377     192.491
  H      -80.337      26.081     196.416
  H      -74.888      23.499     194.180
  H      -74.753      27.192     195.039
  H      -73.276      24.685     196.023
  H      -79.846      28.177     197.340
  H      -71.236      25.651     195.577
  H      -78.216      28.756     197.259
  H      -71.964      26.799     193.127
  H      -72.313      23.845     193.854
  H      -72.095      24.487     192.225
  P      -70.180      28.143     195.751
  C      -70.362      28.918     198.187
  O      -69.805      27.970     197.297
  O      -70.296      29.729     195.586
  O      -69.159      27.599     194.804
  H      -69.743      30.025     194.836
  H      -69.833      28.859     199.141
  H      -71.419      28.689     198.354
  H      -70.262      29.931     197.788
  H      -70.197      20.659     194.735
  H      -70.842      22.255     195.033
  H      -69.123      21.969     195.161

 3  4  5  6  7  8  9  10  11  12  23  26  30  31 0
 6-311+G(2d,p)
 ****
 33  35  36  37  38 0
 6-311+G(2d,p)
 ****
 1  2  13  14  15  16  17  18  19  20  21  22  24  25 0
 3-21G
 ****
 27  28  29  32  34  39  40  41  42  43  44  45  46  47  48  49 0
 3-21G
 ****


