%nproc=1
%NoSave
%Mem=1900MB
#P OB98/GEN NMR

erre ene a

0 1
  C     -739.571     478.911     655.962
  O     -740.808     478.249     655.848
  H     -739.007     478.482     656.798
  H     -739.748     479.972     656.172
  H     -738.979     478.808     655.050
  P     -741.619     478.427     654.477
  C     -741.016     476.066     653.574
  O     -742.045     476.953     653.999
  C     -741.417     474.614     653.869
  O     -741.286     474.380     655.311
  C     -742.865     474.256     653.470
  O     -742.881     472.914     652.987
  C     -743.587     474.297     654.796
  O     -744.781     473.513     654.781
  C     -742.513     473.764     655.739
  N     -746.079     473.269     659.237
  C     -745.959     472.683     658.002
  N     -746.967     471.890     657.587
  N     -744.922     472.870     657.218
  C     -743.973     473.674     657.751
  C     -743.983     474.312     658.963
  C     -745.129     474.112     659.826
  O     -745.313     474.610     660.919
  N     -742.851     475.089     659.115
  C     -742.183     474.935     657.983
  N     -742.817     474.087     657.123
  O     -740.464     478.843     653.440
  O     -742.723     479.430     654.510
  H     -745.060     473.351     655.699
  H     -740.422     479.812     653.366
  H     -746.897     473.111     659.806
  H     -741.249     475.417     657.738
  H     -742.391     472.685     655.670
  H     -743.866     475.330     655.055
  H     -747.780     471.675     658.145
  H     -743.289     474.922     652.723
  H     -746.872     471.425     656.695
  H     -740.696     473.946     653.370
  H     -740.098     476.305     654.118
  H     -740.841     476.211     652.508
  P     -743.505     472.640     651.533
  C     -741.444     472.805     649.954
  O     -742.387     471.971     650.603
  O     -743.642     474.117     650.918
  O     -744.824     471.940     651.558
  H     -744.443     474.172     650.349
  H     -740.773     472.203     649.377
  H     -740.890     473.354     650.686
  H     -741.956     473.488     649.309

 6  7  8  9  10  11  12  13  14  15  26  29  33  34 0
 6-311+G(2d,p)
 ****
 36  38  39  40  41 0
 6-311+G(2d,p)
 ****
 1  2  3  4  5  16  17  18  19  20  21  22  23  24  25 0
 3-21G
 ****
 27  28  30  31  32  35  37  42  43  44  45  46  47 0
 3-21G
 ****
 48  49 0
 3-21G
 ****


