%nproc=1
%NoSave
%Mem=1900MB
#P OB98/GEN NMR

erre ene a

0 1
  C      158.582    -183.922    -408.508
  O      158.020    -184.787    -407.541
  H      159.564    -184.306    -408.793
  H      158.705    -182.916    -408.097
  H      157.950    -183.883    -409.400
  P      156.570    -184.433    -406.958
  C      154.581    -185.808    -406.053
  O      155.940    -185.824    -406.468
  C      154.077    -187.235    -405.865
  O      154.008    -187.917    -407.132
  C      154.963    -188.091    -404.959
  O      154.686    -187.818    -403.595
  C      154.536    -189.482    -405.392
  O      153.258    -189.802    -404.807
  C      154.392    -189.303    -406.914
  N      157.235    -192.883    -409.107
  C      156.077    -193.001    -408.359
  N      155.643    -194.259    -408.129
  N      155.424    -191.983    -407.867
  C      156.015    -190.794    -408.119
  C      157.168    -190.550    -408.831
  C      157.854    -191.680    -409.418
  O      158.872    -191.617    -410.102
  N      157.495    -189.219    -408.819
  C      156.518    -188.654    -408.132
  N      155.604    -189.569    -407.674
  O      155.666    -183.645    -407.859
  O      156.877    -183.664    -405.590
  H      153.409    -189.910    -403.851
  H      156.917    -182.700    -405.730
  H      157.705    -193.706    -409.441
  H      156.428    -187.590    -407.945
  H      153.602    -189.935    -407.335
  H      155.236    -190.260    -405.090
  H      156.250    -195.062    -408.233
  H      156.024    -187.965    -405.195
  H      154.827    -194.370    -407.542
  H      153.054    -187.180    -405.472
  H      154.004    -185.299    -406.833
  H      154.474    -185.254    -405.117
  P      155.729    -188.224    -402.443
  C      155.835    -187.473    -399.971
  O      155.557    -187.097    -401.314
  O      157.130    -188.429    -402.909
  O      155.083    -189.509    -401.750
  H      155.342    -190.362    -402.177
  H      155.682    -186.633    -399.326
  H      156.851    -187.800    -399.895
  H      155.182    -188.269    -399.681

 6  7  8  9  10  11  12  13  14  15  26  29  33  34 0
 6-311+G(2d,p)
 ****
 36  38  39  40  41 0
 6-311+G(2d,p)
 ****
 1  2  3  4  5  16  17  18  19  20  21  22  23  24  25 0
 3-21G
 ****
 27  28  30  31  32  35  37  42  43  44  45  46  47 0
 3-21G
 ****
 48  49 0
 3-21G
 ****


