%nproc=1
%NoSave
%Mem=1900MB
#P OB98/GEN NMR

erre ene a

0 1
  C     -114.673     -78.512     452.598
  O     -115.669     -78.162     453.538
  H     -115.143     -79.057     451.775
  H     -113.926     -79.159     453.061
  H     -114.187     -77.617     452.192
  P     -115.275     -77.197     454.755
  C     -114.339     -79.203     456.090
  O     -115.245     -78.106     456.076
  C     -113.385     -79.101     457.289
  O     -112.684     -77.826     457.213
  C     -114.089     -79.146     458.663
  O     -113.162     -79.740     459.588
  C     -114.277     -77.664     458.943
  O     -114.658     -77.410     460.266
  C     -112.909     -77.149     458.473
  N     -112.812     -75.703     458.306
  C     -111.899     -75.025     459.110
  O     -111.171     -75.549     459.945
  N     -111.849     -73.666     458.926
  C     -112.580     -72.942     458.033
  O     -112.470     -71.732     457.889
  C     -113.532     -73.716     457.217
  C     -113.596     -75.046     457.384
  O     -116.070     -75.942     454.870
  O     -113.719     -76.888     454.505
  H     -113.620     -76.002     454.111
  H     -114.787     -76.448     460.382
  H     -111.193     -73.157     459.491
  H     -114.143     -73.181     456.504
  H     -114.278     -75.642     456.789
  H     -112.126     -77.487     459.158
  H     -115.082     -77.271     458.315
  H     -115.015     -79.730     458.648
  H     -112.626     -79.889     457.204
  H     -113.765     -79.185     455.158
  H     -114.904     -80.138     456.141
  P     -113.085     -81.319     459.874
  C     -114.095     -80.952     462.233
  O     -113.049     -81.533     461.465
  O     -111.983     -82.015     459.141
  O     -114.519     -81.896     459.448
  H     -114.431     -82.836     459.197
  H     -113.943     -81.174     463.269
  H     -115.035     -81.353     461.917
  H     -114.094     -79.891     462.092

 6  7  8  9  10  11  12  13  14  15  16  27  31  32  33  34  35 0
 6-311+G(2d,p)
 ****
 36  37 0
 6-311+G(2d,p)
 ****
 1  2  3  4  5  17  18  19  20  21  22  23  24  25 0
 3-21G
 ****
 26  28  29  30  38  39  40  41  42  43  44  45 0
 3-21G
 ****


