%nproc=1
%NoSave
%Mem=1900MB
#P OB98/GEN NMR

erre ene a

0 1
  C     -234.453      63.739      75.608
  O     -234.058      63.891      74.238
  P     -235.073      64.657      73.257
  C     -234.601      65.922      71.009
  O     -234.282      64.839      71.874
  C     -233.339      66.420      70.312
  O     -232.404      66.971      71.273
  C     -232.564      65.338      69.572
  O     -233.215      64.972      68.363
  C     -231.212      66.017      69.393
  O     -231.252      66.925      68.278
  C     -231.080      66.812      70.714
  N     -230.168      66.190      71.663
  C     -228.815      66.438      71.456
  O     -228.389      67.119      70.522
  N     -227.954      65.861      72.357
  C     -228.311      65.050      73.397
  O     -227.497      64.569      74.176
  C     -229.751      64.785      73.532
  C     -230.601      65.356      72.675
  O     -235.084      66.118      73.906
  O     -236.406      63.992      73.162
  H     -234.224      66.378      74.277
  H     -232.005      67.525      68.440
  H     -226.969      66.042      72.233
  H     -230.068      64.123      74.334
  H     -231.669      65.166      72.758
  H     -230.711      67.827      70.507
  H     -230.406      65.303      69.208
  H     -232.453      64.455      70.213
  H     -233.627      67.223      69.615
  H     -235.039      66.741      71.588
  H     -235.350      65.590      70.286
  P     -234.021      63.580      68.367
  C     -235.879      62.831      66.686
  O     -234.597      63.386      66.886
  O     -235.304      63.970      69.241
  O     -233.231      62.435      68.908
  H     -235.685      64.831      68.996
  H     -236.227      63.100      65.684
  H     -236.597      63.210      67.417
  H     -235.822      61.742      66.761
  H     -233.689      63.215      76.143
  H     -235.367      63.185      75.656
  H     -234.598      64.704      76.047

 3  4  5  6  7  8  9  10  11  12  13  24  28  29  30  31  32 0
 6-311+G(2d,p)
 ****
 33  34 0
 6-311+G(2d,p)
 ****
 1  2  14  15  16  17  18  19  20  21  22  23  25  26  27 0
 3-21G
 ****
 35  36  37  38  39  40  41  42  43  44  45 0
 3-21G
 ****


