%nproc=1
%NoSave
%Mem=1900MB
#P OB98/GEN NMR

erre ene a

0 1
  C       23.112    -468.918     538.499
  O       24.507    -468.926     538.694
  H       22.781    -469.948     538.340
  H       22.851    -468.334     537.612
  H       22.599    -468.520     539.380
  P       25.277    -467.530     538.912
  C       25.175    -466.775     536.453
  O       26.015    -467.232     537.510
  C       25.971    -465.979     535.425
  O       26.495    -464.768     536.046
  C       27.162    -466.745     534.827
  O       27.170    -466.604     533.403
  C       28.378    -466.043     535.421
  O       29.551    -466.192     534.627
  C       27.840    -464.607     535.551
  N       28.664    -463.797     536.431
  C       29.298    -462.692     535.846
  O       29.137    -462.454     534.650
  N       30.136    -461.922     536.606
  C       30.362    -462.257     537.845
  N       31.226    -461.467     538.542
  C       29.740    -463.426     538.499
  C       28.907    -464.144     537.746
  O       26.161    -467.488     540.112
  O       24.119    -466.424     538.939
  H       29.288    -466.197     533.678
  H       24.454    -465.623     539.413
  H       29.963    -463.661     539.532
  H       28.400    -465.020     538.134
  H       27.783    -464.114     534.566
  H       28.582    -466.452     536.411
  H       27.162    -467.811     535.075
  H       25.278    -465.643     534.636
  H       31.636    -460.677     538.054
  H       24.375    -466.159     536.887
  H       31.499    -461.635     539.497
  H       24.730    -467.651     535.970
  P       26.467    -467.782     532.564
  C       28.542    -469.323     532.825
  O       27.627    -468.696     531.935
  O       25.840    -467.012     531.306
  O       25.413    -468.512     533.345
  H       24.865    -467.003     531.368
  H       29.251    -469.894     532.263
  H       28.008    -469.971     533.488
  H       29.055    -468.576     533.393

 6  7  8  9  10  11  12  13  14  15  16  26  30  31  32  33  35 0
 6-311+G(2d,p)
 ****
 37  38 0
 6-311+G(2d,p)
 ****
 1  2  3  4  5  17  18  19  20  21  22  23  24  25 0
 3-21G
 ****
 27  28  29  34  36  39  40  41  42  43  44  45  46 0
 3-21G
 ****


