%nproc=1
%NoSave
%Mem=1900MB
#P OB98/GEN NMR

erre ene a

0 1
  C      125.424     388.919     -34.635
  O      125.488     390.268     -34.214
  H      124.383     388.626     -34.795
  H      125.967     388.819     -35.578
  H      125.887     388.267     -33.889
  P      124.771     390.622     -32.824
  C      127.092     390.641     -31.667
  O      125.770     390.129     -31.668
  C      127.374     391.367     -30.354
  O      127.241     390.456     -29.243
  C      128.777     391.952     -30.236
  O      128.892     393.187     -30.927
  C      128.880     392.144     -28.730
  O      128.174     393.339     -28.343
  C      128.146     390.903     -28.200
  N      130.303     388.322     -24.342
  C      129.391     389.322     -24.364
  N      128.850     389.943     -25.430
  C      129.326     389.423     -26.573
  C      130.238     388.391     -26.714
  C      130.743     387.832     -25.528
  N      131.726     386.856     -25.519
  N      130.495     388.143     -28.050
  C      129.766     389.025     -28.699
  N      129.036     389.815     -27.853
  O      123.567     389.562     -32.767
  O      124.279     392.025     -32.701
  H      128.372     393.489     -27.399
  H      122.750     389.990     -33.083
  H      129.060     389.669     -23.392
  H      129.736     389.130     -29.774
  H      127.535     391.131     -27.317
  H      129.911     392.248     -28.379
  H      129.542     391.236     -30.558
  H      126.616     392.150     -30.232
  H      127.214     391.343     -32.498
  H      132.315     386.879     -24.690
  H      132.195     386.727     -26.411
  H      127.790     389.811     -31.800
  P      130.354     393.640     -31.411
  C      129.992     392.087     -33.447
  O      130.875     392.495     -32.414
  O      131.245     393.430     -30.097
  O      130.453     395.036     -31.917
  H      131.695     394.265     -29.868
  H      130.460     391.326     -34.036
  H      129.758     392.926     -34.068
  H      129.092     391.701     -33.015

 6  7  8  9  10  11  12  13  14  15  25  28  32  33  34  35 0
 6-311+G(2d,p)
 ****
 36  39  40 0
 6-311+G(2d,p)
 ****
 1  2  3  4  5  16  17  18  19  20  21  22  23  24 0
 3-21G
 ****
 26  27  29  30  31  37  38  41  42  43  44  45  46  47  48 0
 3-21G
 ****


