%nproc=1
%NoSave
%Mem=1900MB
#P OB98/GEN NMR

erre ene a

0 1
  C      252.598    1074.009     226.552
  O      253.383    1073.657     225.403
  P      253.136    1072.259     224.679
  C      255.488    1071.243     225.001
  O      254.528    1071.720     224.078
  C      256.753    1070.746     224.277
  O      256.512    1069.454     223.672
  C      257.201    1071.700     223.162
  O      258.581    1072.065     223.243
  C      256.785    1070.988     221.887
  O      257.536    1071.383     220.747
  C      256.874    1069.516     222.287
  N      256.023    1068.671     221.454
  C      256.654    1067.920     220.472
  O      257.879    1068.005     220.233
  N      255.849    1067.105     219.719
  C      254.493    1067.037     219.788
  O      253.803    1066.328     219.063
  C      253.859    1067.889     220.812
  C      254.643    1068.664     221.582
  O      251.978    1072.208     223.741
  O      252.903    1071.248     225.924
  H      258.500    1071.313     220.974
  H      252.196    1070.621     225.664
  H      256.287    1066.531     219.002
  H      252.787    1067.890     220.887
  H      254.212    1069.318     222.332
  H      257.903    1069.133     222.193
  H      255.736    1071.236     221.681
  H      256.679    1072.677     223.219
  H      257.542    1070.647     225.030
  H      255.052    1070.411     225.566
  H      255.700    1072.028     225.736
  P      259.131    1073.549     223.477
  C      260.086    1073.749     221.068
  O      260.338    1073.810     222.468
  O      259.404    1073.923     224.902
  O      257.956    1074.475     222.892
  H      257.816    1075.253     223.470
  H      261.024    1073.582     220.566
  H      259.672    1074.696     220.741
  H      259.400    1072.929     220.837
  H      252.896    1074.974     226.906
  H      252.750    1073.283     227.324
  H      251.563    1074.032     226.283

 3  4  5  6  7  8  9  10  11  12  13  23  28  29  30  31  32 0
 6-311+G(2d,p)
 ****
 33  34 0
 6-311+G(2d,p)
 ****
 1  2  14  15  16  17  18  19  20  21  22  24  25  26  27 0
 3-21G
 ****
 35  36  37  38  39  40  41  42  43  44  45 0
 3-21G
 ****


