%nproc=1
%NoSave
%Mem=1900MB
#P OB98/GEN NMR

erre ene a

0 1
  C     -274.604     -96.635      40.644
  O     -274.583     -96.878      42.036
  P     -273.229     -96.699      42.876
  C     -273.012     -99.271      42.915
  O     -273.049     -98.074      43.689
  C     -273.026    -100.503      43.818
  O     -271.800    -100.594      44.569
  C     -274.147    -100.505      44.850
  O     -275.381    -100.852      44.246
  C     -273.620    -101.523      45.852
  O     -273.906    -102.867      45.429
  C     -272.100    -101.252      45.820
  N     -271.650    -100.470      46.965
  C     -270.863    -101.154      47.899
  O     -270.615    -102.350      47.750
  N     -270.418    -100.472      49.006
  C     -270.751     -99.230      49.175
  N     -270.287     -98.615      50.297
  C     -271.602     -98.484      48.228
  C     -272.014     -99.159      47.159
  O     -273.144     -95.454      43.693
  O     -272.091     -96.799      41.752
  H     -273.608    -103.448      46.156
  H     -272.050     -95.978      41.206
  H     -271.863     -97.453      48.418
  H     -272.648     -98.691      46.414
  H     -271.541    -102.198      45.811
  H     -274.070    -101.395      46.842
  H     -274.214     -99.520      45.328
  H     -273.102    -101.393      43.178
  H     -269.731     -99.171      50.936
  H     -272.095     -99.267      42.320
  H     -270.516     -97.666      50.544
  H     -273.867     -99.282      42.229
  P     -276.725    -100.112      44.697
  C     -277.633    -102.353      43.838
  O     -277.957    -101.061      44.310
  O     -276.851     -98.691      44.257
  O     -276.687    -100.207      46.295
  H     -276.939     -99.343      46.671
  H     -278.516    -102.991      43.932
  H     -276.814    -102.789      44.414
  H     -277.348    -102.293      42.783
  H     -275.590     -96.807      40.267
  H     -273.916     -97.293      40.157
  H     -274.322     -95.620      40.455

 3  4  5  6  7  8  9  10  11  12  13  23  27  28  29  30  32 0
 6-311+G(2d,p)
 ****
 34  35 0
 6-311+G(2d,p)
 ****
 1  2  14  15  16  17  18  19  20  21  22  24  25  26 0
 3-21G
 ****
 31  33  36  37  38  39  40  41  42  43  44  45  46 0
 3-21G
 ****


