%nproc=1
%NoSave
%Mem=1900MB
#P OB98/GEN NMR

erre ene a

0 1
  C      596.504    -430.189    -623.973
  O      597.846    -430.380    -623.569
  H      596.439    -429.274    -624.562
  H      595.866    -430.088    -623.097
  H      596.159    -431.023    -624.591
  P      598.280    -431.791    -622.948
  C      600.067    -432.425    -624.706
  O      599.813    -432.016    -623.369
  C      601.561    -432.395    -625.021
  O      601.958    -431.015    -625.289
  C      602.456    -432.907    -623.872
  O      603.606    -433.499    -624.460
  C      602.812    -431.617    -623.164
  O      603.932    -431.785    -622.318
  C      603.008    -430.668    -624.356
  N      602.975    -429.260    -623.975
  C      604.153    -428.702    -623.511
  O      605.211    -429.363    -623.378
  N      604.106    -427.391    -623.140
  C      602.993    -426.598    -623.134
  O      602.997    -425.441    -622.768
  C      601.743    -427.254    -623.604
  C      601.799    -428.540    -624.000
  O      597.375    -432.940    -623.250
  O      598.389    -431.513    -621.369
  H      604.755    -431.883    -622.856
  H      598.181    -432.326    -620.875
  H      604.964    -426.980    -622.800
  H      600.838    -426.661    -623.604
  H      600.891    -429.038    -624.330
  H      603.971    -430.865    -624.849
  H      601.986    -431.272    -622.523
  H      601.941    -433.628    -623.220
  H      601.738    -432.967    -625.937
  H      599.526    -431.728    -625.364
  H      599.669    -433.440    -624.868
  P      604.659    -434.374    -623.610
  C      604.313    -436.557    -624.960
  O      605.237    -435.546    -624.552
  O      604.116    -434.866    -622.292
  O      605.921    -433.416    -623.392
  H      606.373    -433.664    -622.556
  H      604.816    -437.272    -625.577
  H      603.514    -436.108    -625.512
  H      603.917    -437.048    -624.096

 6  7  8  9  10  11  12  13  14  15  16  26  31  32  33  34  35 0
 6-311+G(2d,p)
 ****
 36  37 0
 6-311+G(2d,p)
 ****
 1  2  3  4  5  17  18  19  20  21  22  23  24  25 0
 3-21G
 ****
 27  28  29  30  38  39  40  41  42  43  44  45 0
 3-21G
 ****


