%nproc=1
%NoSave
%Mem=1900MB
#P OB98/GEN NMR

erre ene a

0 1
  C     -451.842     179.288     635.372
  O     -452.519     180.116     634.434
  P     -451.816     180.824     633.181
  C     -452.996     179.794     631.078
  O     -452.878     180.881     631.985
  C     -454.451     179.317     630.887
  O     -454.881     178.585     632.060
  C     -455.388     180.518     630.760
  O     -455.559     181.161     629.508
  C     -456.698     180.056     631.400
  O     -457.617     179.531     630.441
  C     -456.243     178.965     632.369
  N     -459.153     181.031     636.037
  C     -459.421     180.900     634.688
  N     -460.580     181.420     634.244
  N     -458.603     180.313     633.842
  C     -457.438     179.913     634.412
  C     -457.045     180.007     635.721
  C     -457.988     180.607     636.654
  O     -457.800     180.734     637.871
  N     -455.793     179.510     635.916
  C     -455.393     179.144     634.715
  N     -456.368     179.355     633.758
  O     -450.438     180.339     632.849
  O     -451.688     182.368     633.650
  H     -457.155     178.844     629.931
  H     -450.879     182.712     633.238
  H     -459.831     181.463     636.645
  H     -454.434     178.700     634.480
  H     -456.851     178.050     632.244
  H     -457.205     180.896     631.886
  H     -461.193     181.985     634.816
  H     -454.994     181.306     631.419
  H     -460.676     181.521     633.226
  H     -454.526     178.611     630.055
  H     -452.383     178.981     631.478
  H     -452.571     180.056     630.107
  P     -456.026     182.678     629.265
  C     -453.859     183.420     628.119
  O     -455.253     183.240     627.976
  O     -455.339     183.488     630.464
  O     -457.511     182.887     629.263
  H     -455.762     184.361     630.573
  H     -453.503     184.078     627.317
  H     -453.349     182.454     628.037
  H     -453.616     183.883     629.094
  H     -452.537     178.942     636.108
  H     -451.067     179.850     635.849
  H     -451.413     178.450     634.864

 3  4  5  6  7  8  9  10  11  12  23  26  30  31 0
 6-311+G(2d,p)
 ****
 33  35  36  37  38 0
 6-311+G(2d,p)
 ****
 1  2  13  14  15  16  17  18  19  20  21  22  24  25 0
 3-21G
 ****
 27  28  29  32  34  39  40  41  42  43  44  45  46  47  48  49 0
 3-21G
 ****


