%nproc=1
%NoSave
%Mem=1900MB
#P OB98/GEN NMR

erre ene a

0 1
  C      143.854     296.921     288.653
  O      142.848     295.923     288.594
  P      142.329     295.482     287.138
  C      143.892     293.412     287.293
  O      143.466     294.530     286.523
  C      144.590     292.367     286.419
  O      145.031     291.272     287.257
  C      143.704     291.789     285.312
  O      144.525     291.579     284.163
  C      143.276     290.445     285.868
  O      142.926     289.531     284.829
  C      144.514     290.052     286.688
  N      144.204     289.069     287.721
  C      143.801     287.802     287.288
  O      143.648     287.582     286.087
  N      143.534     286.836     288.225
  C      143.559     287.141     289.485
  N      143.290     286.148     290.376
  C      143.857     288.499     289.980
  C      144.187     289.400     289.056
  O      142.471     296.825     286.284
  O      140.939     294.934     287.114
  H      142.470     288.765     285.239
  H      141.779     296.875     285.597
  H      143.828     288.708     291.040
  H      144.447     290.412     289.329
  H      145.295     289.635     286.035
  H      142.405     290.571     286.522
  H      142.867     292.444     285.051
  H      145.485     292.826     285.986
  H      143.070     285.230     290.012
  H      143.018     292.944     287.755
  H      143.284     286.292     291.377
  H      144.557     293.753     288.094
  P      143.791     291.396     282.749
  C      144.002     293.906     282.254
  O      143.116     292.820     282.446
  O      142.513     290.519     283.162
  O      144.549     290.754     281.636
  H      142.006     290.280     282.366
  H      143.425     294.774     281.923
  H      144.745     293.669     281.488
  H      144.498     294.154     283.196
  H      144.103     297.116     289.675
  H      143.493     297.819     288.196
  H      144.725     296.581     288.132

 3  4  5  6  7  8  9  10  11  12  13  21  23  27  28  29  30  32 0
 6-311+G(2d,p)
 ****
 34  35 0
 6-311+G(2d,p)
 ****
 1  2  14  15  16  17  18  19  20  22  24  25  26 0
 3-21G
 ****
 31  33  36  37  38  39  40  41  42  43  44  45  46 0
 3-21G
 ****


