%nproc=1
%NoSave
%Mem=1900MB
#P OB98/GEN NMR

erre ene a

0 1
  C     -558.035    -583.998    -308.940
  O     -558.141    -585.232    -309.654
  P     -557.281    -586.490    -309.165
  C     -558.506    -588.514    -310.193
  O     -557.384    -587.649    -310.285
  C     -559.733    -587.898    -310.871
  O     -559.359    -587.317    -312.159
  C     -560.833    -588.934    -311.148
  O     -562.131    -588.323    -311.046
  C     -560.605    -589.292    -312.606
  O     -561.773    -589.860    -313.194
  C     -560.189    -587.930    -313.167
  N     -560.215    -589.910    -317.892
  C     -561.136    -589.917    -316.908
  N     -561.072    -589.356    -315.685
  C     -559.911    -588.706    -315.523
  C     -558.868    -588.598    -316.443
  C     -559.049    -589.242    -317.678
  N     -558.094    -589.253    -318.669
  N     -557.828    -587.857    -315.920
  C     -558.205    -587.573    -314.690
  N     -559.465    -588.032    -314.416
  O     -557.528    -586.942    -307.768
  O     -555.772    -585.977    -309.351
  H     -561.613    -589.930    -314.152
  H     -555.234    -586.270    -308.578
  H     -562.051    -590.463    -317.132
  H     -557.605    -587.043    -313.961
  H     -561.055    -587.276    -313.336
  H     -559.788    -590.017    -312.681
  H     -560.807    -589.812    -310.499
  H     -560.110    -587.083    -310.246
  H     -558.723    -588.724    -309.142
  H     -558.267    -589.835    -319.475
  H     -557.171    -588.892    -318.461
  H     -558.243    -589.481    -310.636
  P     -563.086    -588.898    -309.877
  C     -563.996    -586.692    -308.808
  O     -564.227    -587.789    -309.665
  O     -562.344    -589.332    -308.658
  O     -563.845    -590.096    -310.633
  H     -564.238    -589.850    -311.488
  H     -564.827    -585.992    -308.900
  H     -563.071    -586.173    -309.079
  H     -563.934    -587.024    -307.769
  H     -558.670    -583.267    -309.395
  H     -557.021    -583.656    -308.967
  H     -558.334    -584.147    -307.923

 3  4  5  6  7  8  9  10  11  12  22  25  29  30  31  32 0
 6-311+G(2d,p)
 ****
 33  36  37 0
 6-311+G(2d,p)
 ****
 1  2  13  14  15  16  17  18  19  20  21  23  24  26 0
 3-21G
 ****
 27  28  34  35  38  39  40  41  42  43  44  45  46  47  48 0
 3-21G
 ****


