%nproc=1
%NoSave
%Mem=1900MB
#P OB98/GEN NMR

erre ene a

0 1
  C      981.329     384.924    1024.360
  O      980.807     384.728    1025.664
  P      980.824     385.982    1026.683
  C      978.457     386.835    1025.975
  O      979.271     386.279    1027.016
  C      977.098     386.142    1025.936
  O      977.265     384.747    1025.572
  C      976.341     386.131    1027.259
  O      975.652     387.354    1027.486
  C      975.366     384.988    1027.018
  O      974.261     385.464    1026.213
  C      976.211     383.989    1026.229
  N      975.477     379.393    1028.347
  C      974.657     380.215    1027.624
  N      974.920     381.430    1027.107
  C      976.172     381.815    1027.424
  C      977.113     381.115    1028.182
  C      976.720     379.857    1028.640
  N      977.563     379.015    1029.342
  N      978.271     381.842    1028.291
  C      978.061     382.932    1027.614
  N      976.806     382.969    1027.064
  O      981.237     387.197    1025.727
  O      981.729     385.837    1027.851
  H      973.959     386.303    1026.613
  H      981.631     387.917    1026.268
  H      973.654     379.823    1027.437
  H      978.773     383.736    1027.483
  H      975.653     383.503    1025.441
  H      974.926     384.614    1027.938
  H      977.005     385.871    1028.096
  H      976.510     386.625    1025.141
  H      978.959     386.708    1025.026
  H      977.267     378.064    1029.486
  H      978.538     379.257    1029.400
  H      978.332     387.914    1026.175
  P      975.221     387.666    1029.006
  C      976.534     389.878    1029.341
  O      975.279     389.254    1029.136
  O      976.484     387.149    1029.858
  O      973.948     387.001    1029.413
  H      976.219     386.915    1030.749
  H      976.441     390.948    1029.101
  H      977.306     389.446    1028.701
  H      976.833     389.776    1030.391
  H      981.251     384.013    1023.804
  H      982.357     385.214    1024.427
  H      980.773     385.693    1023.865

 3  4  5  6  7  8  9  10  11  12  22  25  29  30  31  32 0
 6-311+G(2d,p)
 ****
 33  36  37 0
 6-311+G(2d,p)
 ****
 1  2  13  14  15  16  17  18  19  20  21  23  24  26 0
 3-21G
 ****
 27  28  34  35  38  39  40  41  42  43  44  45  46  47  48 0
 3-21G
 ****


