%nproc=1
%NoSave
%Mem=1900MB
#P OB98/GEN NMR

erre ene a

0 1
  C        0.067    -897.820     -29.070
  O       -0.247    -896.850     -28.088
  P       -0.134    -895.290     -28.412
  C       -2.644    -894.530     -28.207
  O       -1.519    -894.810     -29.030
  C       -3.922    -894.960     -28.944
  O       -3.842    -896.340     -29.326
  C       -5.165    -894.770     -28.086
  O       -5.770    -893.510     -28.324
  C       -6.020    -895.950     -28.477
  O       -6.726    -895.670     -29.700
  C       -4.966    -897.060     -28.707
  N       -4.447    -897.780     -27.535
  C       -5.243    -898.780     -26.954
  O       -6.344    -899.120     -27.382
  N       -4.710    -899.380     -25.834
  C       -3.478    -899.120     -25.300
  O       -3.118    -899.460     -24.169
  C       -2.607    -898.270     -26.110
  C       -3.117    -897.630     -27.160
  O        0.864    -895.260     -29.672
  O        0.346    -894.430     -27.286
  H       -7.104    -896.540     -30.000
  H        1.758    -895.040     -29.387
  H       -5.322    -900.000     -25.330
  H       -1.568    -898.150     -25.792
  H       -2.494    -896.970     -27.755
  H       -5.314    -897.790     -29.431
  H       -6.783    -896.160     -27.715
  H       -4.897    -894.860     -27.014
  H       -4.008    -894.360     -29.865
  H       -2.685    -893.460     -27.958
  H       -2.558    -895.080     -27.256
  P       -5.356    -892.240     -27.438
  C       -4.724    -890.620     -29.329
  O       -4.234    -891.480     -28.311
  O       -4.995    -892.530     -26.027
  O       -6.644    -891.300     -27.545
  H       -7.207    -891.410     -26.730
  H       -3.889    -890.020     -29.711
  H       -5.481    -889.950     -28.938
  H       -5.132    -891.210     -30.147
  H       -0.071    -898.799     -28.661
  H        1.085    -897.701     -29.376
  H       -0.576    -897.693     -29.915

 3  4  5  6  7  8  9  10  11  12  13  23  28  29  30  31  32 0
 6-311+G(2d,p)
 ****
 33  34 0
 6-311+G(2d,p)
 ****
 1  2  14  15  16  17  18  19  20  21  22  24  25  26  27 0
 3-21G
 ****
 35  36  37  38  39  40  41  42  43  44  45 0
 3-21G
 ****


