%nproc=1
%NoSave
%Mem=1900MB
#P OB98/GEN NMR

erre ene a

0 1
  C       33.425      24.204      69.057
  O       32.683      23.790      67.908
  P       33.475      23.796      66.513
  C       33.528      21.208      66.334
  O       34.278      22.412      66.393
  C       34.007      20.329      65.177
  O       35.361      19.872      65.360
  C       33.166      19.075      64.984
  O       31.974      19.393      64.288
  C       34.110      18.189      64.182
  O       34.047      18.496      62.774
  C       35.489      18.562      64.750
  N       37.049      13.802      65.522
  C       36.420      14.361      64.426
  N       36.199      13.541      63.378
  N       36.046      15.612      64.365
  C       36.332      16.315      65.485
  C       36.975      15.881      66.621
  C       37.382      14.493      66.678
  O       37.960      13.957      67.616
  N       37.143      16.900      67.524
  C       36.490      17.913      66.984
  N       36.035      17.630      65.720
  O       34.620      24.890      66.744
  O       32.616      24.139      65.342
  H       34.352      19.410      62.634
  H       34.435      25.682      66.203
  H       37.307      12.830      65.519
  H       36.341      18.874      67.452
  H       36.239      18.650      63.956
  H       33.854      17.131      64.276
  H       36.463      12.568      63.355
  H       32.950      18.612      65.954
  H       35.746      13.934      62.561
  H       33.977      20.940      64.266
  H       32.468      21.434      66.210
  H       33.628      20.684      67.291
  P       30.665      19.717      65.154
  C       31.106      22.272      65.254
  O       30.951      21.064      65.970
  O       30.681      18.574      66.276
  O       29.389      19.694      64.380
  H       29.782      18.211      66.384
  H       30.773      23.100      65.884
  H       30.523      22.273      64.329
  H       32.163      22.413      65.013
  H       32.797      24.159      69.922
  H       33.768      25.208      68.917
  H       34.265      23.555      69.192

 3  4  5  6  7  8  9  10  11  12  23  26  30  31 0
 6-311+G(2d,p)
 ****
 33  35  36  37  38 0
 6-311+G(2d,p)
 ****
 1  2  13  14  15  16  17  18  19  20  21  22  24  25 0
 3-21G
 ****
 27  28  29  32  34  39  40  41  42  43  44  45  46  47  48  49 0
 3-21G
 ****


