%nproc=1
%NoSave
%Mem=1900MB
#P OB98/GEN NMR

erre ene a

0 1
  C      166.515     -67.390    -437.975
  O      165.650     -67.471    -436.830
  P      164.263     -68.275    -436.952
  C      162.588     -66.715    -435.685
  O      163.347     -67.916    -435.687
  C      162.364     -66.234    -434.249
  O      161.572     -67.194    -433.510
  C      163.641     -66.063    -433.438
  O      164.333     -64.875    -433.781
  C      163.092     -66.055    -432.014
  O      162.609     -64.750    -431.656
  C      161.928     -67.060    -432.117
  N      162.249     -68.355    -431.520
  C      162.392     -68.380    -430.135
  O      162.320     -67.373    -429.435
  N      162.659     -69.604    -429.588
  C      162.856     -70.768    -430.277
  O      163.112     -71.832    -429.725
  C      162.772     -70.662    -431.740
  C      162.482     -69.480    -432.286
  O      164.719     -69.778    -436.615
  O      163.593     -68.215    -438.286
  H      162.068     -64.439    -432.408
  H      164.124     -70.406    -437.063
  H      162.736     -69.651    -428.584
  H      162.947     -71.558    -432.326
  H      162.414     -69.386    -433.365
  H      161.038     -66.657    -431.616
  H      163.851     -66.329    -431.274
  H      164.284     -66.941    -433.568
  H      161.803     -65.288    -434.288
  H      161.617     -66.903    -436.156
  H      163.118     -65.958    -436.268
  P      165.835     -64.733    -433.229
  C      165.466     -62.149    -433.099
  O      166.260     -63.222    -433.550
  O      166.635     -65.625    -434.293
  O      165.983     -65.174    -431.809
  H      166.240     -65.579    -435.181
  H      164.987     -62.377    -432.139
  H      164.695     -61.930    -433.842
  H      166.100     -61.267    -432.970
  H      167.388     -66.824    -437.723
  H      165.998     -66.910    -438.779
  H      166.803     -68.376    -438.275

 3  4  5  6  7  8  9  10  11  12  13  23  28  29  30  31  32 0
 6-311+G(2d,p)
 ****
 33  34 0
 6-311+G(2d,p)
 ****
 1  2  14  15  16  17  18  19  20  21  22  24  25  26 0
 3-21G
 ****
 27  35  36  37  38  39  40  41  42  43  44  45 0
 3-21G
 ****


