%nproc=1
%NoSave
%Mem=1900MB
#P OB98/GEN NMR

erre ene a

0 1
  C        2.733      37.642     113.472
  O        3.434      36.948     114.489
  P        2.567      36.041     115.493
  C        0.811      36.500     117.362
  O        1.737      37.044     116.427
  C        0.684      37.420     118.572
  O        1.926      37.451     119.305
  C        0.378      38.874     118.233
  O       -0.983      39.039     117.870
  C        0.776      39.555     119.539
  O       -0.263      39.392     120.517
  C        2.021      38.749     119.952
  N        5.401      42.421     121.100
  C        4.234      42.056     121.678
  N        3.380      41.083     121.301
  C        3.835      40.448     120.208
  C        4.992      40.723     119.500
  C        5.800      41.760     119.988
  N        6.988      42.133     119.394
  N        5.117      39.876     118.418
  C        4.059      39.097     118.479
  N        3.261      39.392     119.551
  O        3.668      35.439     116.482
  O        1.760      34.967     114.832
  H       -1.017      39.950     120.237
  H        3.428      34.536     116.766
  H        3.950      42.620     122.563
  H        3.829      38.305     117.778
  H        2.072      38.577     121.033
  H        0.957      40.629     119.427
  H        1.023      39.222     117.418
  H       -0.094      37.010     119.230
  H        1.166      35.520     117.698
  H        7.428      42.980     119.720
  H        7.211      41.736     118.491
  H       -0.156      36.366     116.866
  P       -1.301      40.016     116.637
  C       -0.998      42.540     116.272
  O       -0.965      41.478     117.209
  O       -2.900      40.006     116.620
  O       -0.634      39.647     115.356
  H       -3.275      40.158     117.506
  H       -0.805      43.477     116.798
  H       -1.982      42.595     115.797
  H       -0.225      42.394     115.512
  H        3.426      38.203     112.880
  H        2.024      38.308     113.918
  H        2.219      36.939     112.850

 3  4  5  6  7  8  9  10  11  12  22  25  29  30  31  32 0
 6-311+G(2d,p)
 ****
 33  36  37 0
 6-311+G(2d,p)
 ****
 1  2  13  14  15  16  17  18  19  20  21  23  24  26 0
 3-21G
 ****
 27  28  34  35  38  39  40  41  42  43  44  45  46  47  48 0
 3-21G
 ****


