%nproc=1
%NoSave
%Mem=1900MB
#P OB98/GEN NMR

erre ene a

0 1
  C     -756.931    -908.924    1403.502
  O     -758.300    -908.673    1403.200
  P     -759.082    -909.180    1401.911
  C     -759.236    -906.740    1400.873
  O     -759.880    -907.950    1401.274
  C     -760.131    -905.520    1401.088
  O     -761.133    -905.458    1400.043
  C     -760.905    -905.577    1402.424
  O     -760.950    -904.347    1403.132
  C     -762.244    -906.197    1402.036
  O     -763.278    -905.970    1402.950
  C     -762.430    -905.600    1400.625
  N     -767.220    -907.046    1399.497
  C     -766.752    -906.306    1400.570
  N     -767.691    -905.913    1401.475
  N     -765.491    -905.994    1400.756
  C     -764.678    -906.539    1399.819
  C     -765.013    -907.276    1398.725
  C     -766.409    -907.560    1398.498
  O     -766.882    -908.219    1397.566
  N     -763.893    -907.627    1397.990
  C     -762.897    -907.094    1398.652
  N     -763.325    -906.405    1399.787
  O     -759.820    -910.455    1402.054
  O     -757.900    -909.412    1400.815
  H     -763.175    -906.630    1403.693
  H     -758.203    -910.157    1400.251
  H     -768.187    -907.237    1399.380
  H     -761.849    -907.160    1398.373
  H     -762.913    -904.618    1400.653
  H     -762.099    -907.299    1401.956
  H     -768.652    -906.220    1401.470
  H     -760.400    -906.256    1403.151
  H     -767.299    -905.577    1402.374
  H     -759.495    -904.608    1401.044
  H     -759.021    -906.866    1399.799
  H     -758.277    -906.641    1401.414
  P     -760.148    -903.891    1404.451
  C     -762.277    -903.513    1405.829
  O     -761.029    -902.926    1405.317
  O     -758.966    -902.912    1403.897
  O     -759.523    -905.053    1405.219
  H     -758.101    -903.311    1404.094
  H     -762.922    -902.672    1406.178
  H     -762.021    -904.149    1406.681
  H     -762.792    -904.078    1405.056
  H     -756.680    -908.460    1404.433
  H     -756.315    -908.521    1402.725
  H     -756.769    -909.979    1403.575

 3  4  5  6  7  8  9  10  11  12  23  26  30  31 0
 6-311+G(2d,p)
 ****
 33  35  36  37  38 0
 6-311+G(2d,p)
 ****
 1  2  13  14  15  16  17  18  19  20  21  22  24  25 0
 3-21G
 ****
 27  28  29  32  34  39  40  41  42  43  44  45  46  47  48  49 0
 3-21G
 ****


