%nproc=1
%NoSave
%Mem=1900MB
#P OB98/GEN NMR

erre ene a

0 1
  C     -501.454    -720.337    -111.997
  O     -500.294    -719.537    -112.028
  H     -502.273    -719.749    -111.582
  H     -501.289    -721.210    -111.361
  H     -501.737    -720.662    -113.004
  P     -499.017    -720.045    -112.855
  C     -498.115    -721.487    -110.916
  O     -498.620    -721.477    -112.238
  C     -498.385    -722.835    -110.238
  O     -497.928    -723.903    -111.114
  C     -497.668    -723.007    -108.884
  O     -498.491    -723.848    -108.073
  C     -496.405    -723.744    -109.305
  O     -495.783    -724.366    -108.195
  C     -496.959    -724.677    -110.382
  N     -495.914    -725.226    -111.244
  C     -495.114    -726.223    -110.700
  O     -495.232    -726.628    -109.540
  N     -494.129    -726.715    -111.507
  C     -493.847    -726.281    -112.768
  O     -492.928    -726.742    -113.437
  C     -494.695    -725.191    -113.280
  C     -495.687    -724.727    -112.504
  O     -497.890    -719.079    -112.965
  O     -499.612    -720.435    -114.292
  H     -494.968    -724.833    -108.474
  H     -498.936    -720.299    -114.982
  H     -493.551    -727.450    -111.134
  H     -494.480    -724.814    -114.269
  H     -496.321    -723.925    -112.850
  H     -497.491    -725.529    -109.920
  H     -495.679    -723.050    -109.742
  H     -497.469    -722.063    -108.377
  H     -499.471    -722.960    -110.131
  H     -498.610    -720.685    -110.353
  H     -497.030    -721.293    -110.938
  P     -499.560    -723.258    -107.038
  C     -497.605    -722.388    -105.601
  O     -498.866    -722.081    -106.190
  O     -500.252    -724.294    -106.206
  O     -500.622    -722.477    -107.960
  H     -501.499    -722.466    -107.520
  H     -497.244    -721.535    -105.066
  H     -496.907    -722.649    -106.369
  H     -497.717    -723.211    -104.926

 6  7  8  9  10  11  12  13  14  15  16  26  31  32  33  34  35 0
 6-311+G(2d,p)
 ****
 36  37 0
 6-311+G(2d,p)
 ****
 1  2  3  4  5  17  18  19  20  21  22  23  24  25 0
 3-21G
 ****
 27  28  29  30  38  39  40  41  42  43  44  45 0
 3-21G
 ****


