%nproc=1
%NoSave
%Mem=1900MB
#P OB98/GEN NMR

erre ene a

0 1
  C       52.243     152.995     -42.576
  O       51.846     151.963     -41.692
  H       51.538     153.825     -42.485
  H       52.229     152.631     -43.607
  H       53.243     153.349     -42.315
  P       52.774     150.654     -41.658
  C       54.819     152.078     -40.954
  O       54.253     151.212     -41.930
  C       55.512     151.268     -39.861
  O       56.358     150.258     -40.437
  C       56.412     152.091     -38.946
  O       55.651     152.755     -37.951
  C       57.287     150.997     -38.352
  O       56.575     150.326     -37.293
  C       57.481     150.039     -39.541
  N       62.534     149.123     -39.639
  C       61.608     148.954     -38.669
  N       60.294     149.260     -38.697
  C       59.953     149.792     -39.883
  C       60.787     150.025     -40.967
  C       62.134     149.655     -40.818
  N       63.072     149.820     -41.815
  N       60.085     150.587     -42.013
  C       58.838     150.644     -41.585
  N       58.714     150.208     -40.290
  O       52.325     149.520     -42.512
  O       52.810     150.347     -40.085
  H       57.166     149.640     -36.931
  H       52.860     151.176     -39.576
  H       61.974     148.513     -37.745
  H       57.993     150.972     -42.177
  H       57.451     148.990     -39.226
  H       58.207     151.392     -37.915
  H       57.041     152.781     -39.519
  H       54.736     150.751     -39.282
  H       54.044     152.713     -40.513
  H       64.041     149.690     -41.568
  H       62.801     150.329     -42.643
  H       55.544     152.720     -41.465
  P       56.268     153.995     -37.142
  C       55.145     155.833     -38.543
  O       56.373     155.213     -38.184
  O       57.528     153.700     -36.403
  O       55.096     154.457     -36.159
  H       55.463     154.726     -35.296
  H       55.335     156.625     -39.237
  H       54.677     156.231     -37.667
  H       54.499     155.110     -38.995

 6  7  8  9  10  11  12  13  14  15  25  28  32  33  34  35 0
 6-311+G(2d,p)
 ****
 36  39  40 0
 6-311+G(2d,p)
 ****
 1  2  3  4  5  16  17  18  19  20  21  22  23  24 0
 3-21G
 ****
 26  27  29  30  31  37  38  41  42  43  44  45  46  47 0
 3-21G
 ****
 48 0
 3-21G
 ****


