%nproc=1
%NoSave
%Mem=1900MB
#P OB98/GEN NMR

erre ene a

0 1
  C     1153.807     684.471     676.285
  O     1154.600     685.134     675.274
  P     1154.704     686.740     675.304
  C     1157.277     686.781     675.484
  O     1156.054     687.183     676.091
  C     1158.464     687.564     676.096
  O     1158.193     689.021     676.096
  C     1158.735     687.163     677.587
  O     1160.123     687.278     677.876
  C     1157.998     688.303     678.347
  O     1158.518     688.389     679.681
  C     1158.306     689.487     677.418
  N     1156.846     693.250     680.612
  C     1157.881     692.386     680.672
  N     1158.212     691.437     679.766
  C     1157.377     691.442     678.719
  C     1156.292     692.304     678.502
  C     1156.053     693.238     679.500
  N     1155.013     694.143     679.443
  N     1155.665     691.999     677.290
  C     1156.322     690.959     676.816
  N     1157.397     690.588     677.663
  O     1153.482     687.460     675.762
  O     1155.072     687.138     673.780
  H     1159.453     688.498     679.627
  H     1154.506     687.866     673.502
  H     1158.517     692.441     681.541
  H     1156.042     690.468     675.919
  H     1159.336     689.875     677.557
  H     1156.950     688.090     678.351
  H     1158.369     686.183     677.855
  H     1159.345     687.409     675.497
  H     1157.251     686.990     674.402
  H     1154.816     694.712     680.238
  H     1154.283     694.063     678.738
  H     1157.415     685.700     675.598
  P     1160.963     685.907     677.744
  C     1162.474     687.082     675.903
  O     1161.669     685.921     676.333
  O     1160.145     684.679     678.067
  O     1162.152     686.170     678.798
  H     1162.640     686.988     678.674
  H     1162.921     686.819     674.967
  H     1163.192     687.253     676.687
  H     1161.767     687.925     675.775
  H     1153.840     683.413     676.127
  H     1152.794     684.810     676.223
  H     1154.200     684.699     677.253

 3  4  5  6  7  8  9  10  11  12  22  25  29  30  31  32 0
 6-311+G(2d,p)
 ****
 33  36  37 0
 6-311+G(2d,p)
 ****
 1  2  13  14  15  16  17  18  19  20  21  23  24  26 0
 3-21G
 ****
 27  28  34  35  38  39  40  41  42  43  44  45  46  47  48 0
 3-21G
 ****


