%nproc=1
%NoSave
%Mem=1900MB
#P OB98/GEN NMR

erre ene a

0 1
  C      -48.272      83.914     -34.426
  O      -49.076      82.765     -34.260
  H      -48.782      84.642     -35.061
  H      -48.094      84.365     -33.446
  H      -47.311      83.642     -34.869
  P      -49.488      81.971     -35.591
  C      -48.258      80.518     -37.350
  O      -48.162      81.238     -36.129
  C      -47.130      79.493     -37.440
  O      -45.885      80.203     -37.663
  C      -46.960      78.615     -36.189
  O      -47.082      77.232     -36.535
  C      -45.532      78.873     -35.735
  O      -44.861      77.696     -35.291
  C      -44.869      79.466     -36.972
  N      -40.193      79.541     -34.951
  C      -40.897      78.547     -35.535
  N      -42.096      78.617     -36.149
  C      -42.555      79.880     -36.151
  C      -41.940      81.000     -35.617
  C      -40.708      80.792     -34.977
  N      -40.016      81.795     -34.333
  N      -42.723      82.124     -35.804
  C      -43.811      81.682     -36.401
  N      -43.763      80.330     -36.613
  O      -49.727      83.143     -36.657
  O      -50.686      81.093     -35.459
  H      -45.424      77.295     -34.602
  H      -50.572      82.995     -37.122
  H      -40.442      77.562     -35.497
  H      -44.675      82.282     -36.657
  H      -44.493      78.690     -37.651
  H      -45.547      79.594     -34.908
  H      -47.676      78.863     -35.398
  H      -47.304      78.865     -38.323
  H      -48.175      81.212     -38.193
  H      -39.202      81.534     -33.800
  H      -40.446      82.704     -34.253
  H      -49.235      80.026     -37.399
  P      -48.546      76.724     -36.970
  C      -50.180      77.739     -38.723
  O      -48.851      77.333     -38.423
  O      -49.514      77.561     -36.008
  O      -48.745      75.253     -36.824
  H      -50.347      77.072     -35.866
  H      -50.220      78.120     -39.722
  H      -50.483      78.503     -38.038
  H      -50.838      76.900     -38.635

 6  7  8  9  10  11  12  13  14  15  25  28  32  33  34  35 0
 6-311+G(2d,p)
 ****
 36  39  40 0
 6-311+G(2d,p)
 ****
 1  2  3  4  5  16  17  18  19  20  21  22  23  24 0
 3-21G
 ****
 26  27  29  30  31  37  38  41  42  43  44  45  46  47  48 0
 3-21G
 ****


