%nproc=1
%NoSave
%Mem=1900MB
#P OB98/GEN NMR

erre ene a

0 1
  C      281.853       1.305     412.134
  O      282.296       0.259     411.265
  P      282.806      -1.086     411.977
  C      280.552      -2.366     411.868
  O      281.544      -1.776     412.693
  C      280.253      -3.797     412.315
  O      279.836      -3.865     413.693
  C      279.147      -4.464     411.510
  O      279.656      -4.927     410.274
  C      278.722      -5.591     412.442
  O      279.575      -6.745     412.295
  C      278.901      -4.965     413.835
  N      275.714      -5.575     417.732
  C      276.793      -6.349     417.338
  N      277.074      -7.420     418.105
  N      277.526      -6.090     416.288
  C      277.128      -4.985     415.613
  C      276.099      -4.123     415.920
  C      275.292      -4.422     417.082
  O      274.344      -3.760     417.484
  N      276.038      -3.076     415.035
  C      276.952      -3.374     414.127
  N      277.685      -4.487     414.464
  O      283.693      -0.544     413.195
  O      283.595      -1.973     411.074
  H      280.499      -6.475     412.442
  H      284.637      -0.732     413.027
  H      275.180      -5.827     418.545
  H      277.139      -2.809     413.228
  H      279.349      -5.679     414.540
  H      277.706      -5.935     412.230
  H      276.553      -7.677     418.932
  H      278.315      -3.765     411.362
  H      277.865      -7.996     417.839
  H      281.182      -4.373     412.215
  H      280.882      -2.366     410.825
  H      279.647      -1.746     411.910
  P      279.729      -3.886     409.055
  C      282.196      -3.127     409.323
  O      280.829      -2.786     409.428
  O      278.338      -3.098     409.168
  O      279.880      -4.516     407.710
  H      277.945      -3.002     408.280
  H      282.768      -2.226     409.089
  H      282.369      -3.869     408.538
  H      282.539      -3.527     410.280
  H      281.539       2.145     411.550
  H      282.656       1.598     412.777
  H      281.032       0.955     412.725

 3  4  5  6  7  8  9  10  11  12  23  26  30  31 0
 6-311+G(2d,p)
 ****
 33  35  36  37  38 0
 6-311+G(2d,p)
 ****
 1  2  13  14  15  16  17  18  19  20  21  22  24  25 0
 3-21G
 ****
 27  28  29  32  34  39  40  41  42  43  44  45  46  47  48  49 0
 3-21G
 ****


