%nproc=1
%NoSave
%Mem=1900MB
#P OB98/GEN NMR

erre ene a

0 1
  C      740.201    -641.604    -102.226
  O      739.366    -641.486    -103.374
  P      738.650    -640.071    -103.618
  C      737.340    -638.417    -102.101
  O      737.897    -639.720    -102.245
  C      737.121    -638.087    -100.629
  O      738.395    -637.853     -99.993
  C      736.301    -636.824    -100.385
  O      734.909    -637.077    -100.498
  C      736.692    -636.517     -98.942
  O      735.902    -637.313     -98.041
  C      738.170    -636.934     -98.895
  N      740.068    -632.820     -96.627
  C      739.133    -633.737     -96.174
  N      738.661    -633.531     -94.923
  N      738.702    -634.745     -96.879
  C      739.291    -634.839     -98.088
  C      740.237    -633.998     -98.656
  C      740.664    -632.853     -97.881
  O      741.443    -631.973     -98.261
  N      740.609    -634.432     -99.902
  C      739.925    -635.557    -100.074
  N      739.096    -635.829     -99.015
  O      737.450    -640.439    -104.610
  O      739.524    -639.002    -104.182
  H      736.138    -637.032     -97.127
  H      737.194    -639.659    -105.131
  H      740.379    -632.062     -96.039
  H      740.011    -636.198    -100.951
  H      738.388    -637.479     -97.969
  H      736.507    -635.462     -98.676
  H      739.043    -632.850     -94.290
  H      736.625    -636.004    -101.042
  H      737.996    -634.211     -94.551
  H      736.652    -638.955    -100.151
  H      736.380    -638.377    -102.624
  H      738.020    -637.691    -102.570
  P      733.977    -635.777    -100.697
  C      733.816    -633.570     -99.344
  O      734.097    -634.959     -99.328
  O      732.495    -636.383    -100.659
  O      734.231    -635.018    -101.954
  H      731.875    -635.811    -101.144
  H      733.002    -633.327    -100.028
  H      734.715    -633.015     -99.640
  H      733.528    -633.254     -98.331
  H      740.612    -642.591    -102.184
  H      739.623    -641.421    -101.344
  H      740.995    -640.889    -102.287

 3  4  5  6  7  8  9  10  11  12  23  26  30  31  33  0
 6-311+G(2d,p)
 ****
 35  36  37  38 0
 6-311+G(2d,p)
 ****
 1  2  13  14  15  16  17  18  19  20  21  22  24  25  27  28  29 0
 3-21G
 ****
 32  34  39  40  41  42  43  44  45  46  47  48  49 0
 3-21G
 ****


