%nproc=1
%NoSave
%Mem=1900MB
#P OB98/GEN NMR

erre ene a

0 1
  C      -19.256     -31.224    -260.347
  O      -19.608     -31.395    -261.706
  P      -18.494     -31.355    -262.852
  C      -19.168     -33.583    -263.923
  O      -18.141     -32.875    -263.240
  C      -18.633     -34.260    -265.180
  O      -18.212     -33.238    -266.128
  C      -17.430     -35.188    -264.948
  O      -17.547     -36.259    -265.895
  C      -16.249     -34.310    -265.326
  O      -15.082     -35.057    -265.646
  C      -16.848     -33.535    -266.495
  N      -12.938     -31.443    -269.035
  C      -13.354     -32.722    -268.925
  N      -14.391     -33.203    -268.206
  C      -15.023     -32.210    -267.564
  C      -14.695     -30.862    -267.554
  C      -13.601     -30.482    -268.351
  N      -13.182     -29.176    -268.503
  N      -15.550     -30.163    -266.723
  C      -16.375     -31.071    -266.243
  N      -16.134     -32.308    -266.772
  O      -17.310     -30.497    -262.558
  O      -19.283     -30.828    -264.141
  H      -14.843     -35.601    -264.871
  H      -19.036     -29.901    -264.324
  H      -12.787     -33.457    -269.490
  H      -17.153     -30.888    -265.516
  H      -16.867     -34.128    -267.417
  H      -16.006     -33.644    -264.489
  H      -17.360     -35.577    -263.931
  H      -19.457     -34.812    -265.652
  H      -19.947     -32.866    -264.201
  H      -12.476     -29.001    -269.200
  H      -13.810     -28.423    -268.226
  H      -19.610     -34.331    -263.252
  P      -16.932     -37.702    -265.551
  C      -19.135     -38.806    -264.870
  O      -17.871     -38.342    -264.427
  O      -15.470     -37.712    -265.246
  O      -17.271     -38.572    -266.853
  H      -16.707     -39.366    -266.869
  H      -19.825     -37.961    -264.953
  H      -19.530     -39.516    -264.138
  H      -19.058     -39.303    -265.843
  H      -20.136     -31.283    -259.741
  H      -18.796     -30.267    -260.215
  H      -18.570     -31.993    -260.057

 3  4  5  6  7  8  9  10  11  12  22  25  29  30  31  32 0
 6-311+G(2d,p)
 ****
 33  36  37 0
 6-311+G(2d,p)
 ****
 1  2  13  14  15  16  17  18  19  20  21  23  24  26 0
 3-21G
 ****
 27  28  34  35  38  39  40  41  42  43  44  45  46  47  48 0
 3-21G
 ****


