%nproc=1
%NoSave
%Mem=1900MB
#P OB98/GEN NMR

erre ene a

0 1
  C     -316.249      79.204    -317.148
  O     -315.131      79.952    -316.713
  P     -313.778      79.223    -316.271
  C     -314.242      79.962    -313.865
  O     -313.905      78.871    -314.709
  C     -314.476      79.500    -312.426
  O     -314.768      80.659    -311.597
  C     -315.636      78.507    -312.251
  O     -315.262      77.622    -311.190
  C     -316.775      79.401    -311.792
  O     -317.804      78.685    -311.123
  C     -316.010      80.386    -310.914
  N     -319.310      82.844    -307.879
  C     -318.821      81.586    -307.842
  N     -317.965      80.998    -308.704
  C     -317.612      81.849    -309.677
  C     -318.050      83.151    -309.864
  C     -318.932      83.659    -308.893
  N     -319.413      84.950    -308.896
  N     -317.506      83.682    -311.019
  C     -316.754      82.722    -311.515
  N     -316.737      81.620    -310.704
  O     -312.518      79.930    -316.649
  O     -313.866      77.787    -316.974
  H     -318.572      79.277    -311.014
  H     -313.251      77.752    -317.732
  H     -319.158      80.974    -307.010
  H     -316.208      82.766    -312.446
  H     -315.771      79.964    -309.932
  H     -317.220      79.903    -312.660
  H     -315.877      77.945    -313.158
  H     -313.540      79.066    -312.051
  H     -315.159      80.419    -314.249
  H     -319.926      85.249    -308.083
  H     -318.947      85.646    -309.476
  H     -313.446      80.714    -313.893
  P     -315.081      76.056    -311.483
  C     -317.253      75.511    -310.245
  O     -316.548      75.417    -311.469
  O     -314.071      75.360    -310.633
  O     -314.682      76.011    -313.036
  H     -314.282      75.146    -313.245
  H     -316.911      74.725    -309.567
  H     -318.321      75.377    -310.438
  H     -317.099      76.487    -309.771
  H     -317.049      79.870    -317.397
  H     -316.564      78.545    -316.366
  H     -315.981      78.630    -318.011

 3  4  5  6  7  8  9  10  11  12  22  25  29  30  31  32 0
 6-311+G(2d,p)
 ****
 33  36  37 0
 6-311+G(2d,p)
 ****
 1  2  13  14  15  16  17  18  19  20  21  23  24  26 0
 3-21G
 ****
 27  28  34  35  38  39  40  41  42  43  44  45  46  47  48 0
 3-21G
 ****


