%nproc=1
%NoSave
%Mem=1900MB
#P OB98/GEN NMR

erre ene a

0 1
  C      161.406      93.269     210.632
  O      161.601      92.989     209.258
  H      162.377      93.246     211.134
  H      160.756      92.513     211.084
  H      160.969      94.263     210.753
  P      160.285      92.938     208.341
  C      159.591      90.521     207.723
  O      159.592      91.540     208.715
  C      160.845      89.657     207.843
  O      160.875      88.995     209.120
  C      160.955      88.558     206.790
  O      161.499      89.078     205.588
  C      161.923      87.601     207.470
  O      163.275      88.074     207.294
  C      161.522      87.708     208.953
  N      160.810      84.035     212.471
  C      161.894      84.782     212.162
  N      162.029      85.698     211.180
  C      160.885      85.822     210.481
  C      159.704      85.125     210.682
  C      159.688      84.197     211.737
  N      158.581      83.435     212.049
  N      158.743      85.514     209.770
  C      159.320      86.471     209.071
  N      160.628      86.671     209.439
  O      160.497      93.202     206.889
  O      159.347      93.999     209.094
  H      163.840      87.529     207.874
  H      159.430      93.902     210.060
  H      162.769      84.615     212.783
  H      158.832      87.064     208.304
  H      162.400      87.693     209.611
  H      161.881      86.593     207.053
  H      159.997      88.049     206.633
  H      161.719      90.324     207.803
  H      159.543      90.967     206.723
  H      158.715      82.664     212.686
  H      157.791      83.465     211.419
  H      158.693      89.912     207.874
  P      161.317      88.301     204.194
  C      163.524      87.627     203.058
  O      162.592      87.331     204.091
  O      161.076      89.185     203.022
  O      160.114      87.283     204.464
  H      159.755      86.957     203.614
  H      164.326      86.919     203.087
  H      163.914      88.613     203.201
  H      163.034      87.572     202.109

 6  7  8  9  10  11  12  13  14  15  25  28  32  33  34  35 0
 6-311+G(2d,p)
 ****
 36  39  40 0
 6-311+G(2d,p)
 ****
 1  2  3  4  5  16  17  18  19  20  21  22  23  24 0
 3-21G
 ****
 26  27  29  30  31  37  38  41  42  43  44  45  46  47 0
 3-21G
 ****
 48 0
 3-21G
 ****


