%nproc=1
%NoSave
%Mem=1900MB
#P OB98/GEN NMR

erre ene a

0 1
  C      -35.425      24.379      37.627
  O      -34.770      23.612      36.631
  P      -33.197      23.774      36.345
  C      -32.419      21.499      37.300
  O      -32.469      22.904      37.478
  C      -31.360      20.884      38.216
  O      -31.381      19.443      38.046
  C      -29.930      21.363      37.940
  O      -29.250      21.419      39.199
  C      -29.363      20.254      37.075
  O      -27.944      20.216      37.095
  C      -30.046      19.029      37.693
  N      -30.072      17.886      36.787
  C      -29.277      16.785      37.108
  O      -28.561      16.792      38.108
  N      -29.309      15.690      36.281
  C      -30.004      15.724      35.187
  N      -30.050      14.592      34.434
  C      -30.772      16.908      34.757
  C      -30.778      17.930      35.607
  O      -32.722      25.182      36.239
  O      -32.941      22.896      35.037
  H      -27.655      19.358      36.728
  H      -33.122      23.390      34.199
  H      -31.313      16.898      33.822
  H      -31.333      18.830      35.386
  H      -29.546      18.749      38.627
  H      -29.681      20.402      36.037
  H      -29.898      22.349      37.467
  H      -31.639      21.094      39.256
  H      -29.656      13.754      34.848
  H      -32.149      21.293      36.261
  H      -30.803      14.436      33.773
  H      -33.407      21.067      37.492
  P      -27.992      22.407      39.340
  C      -29.598      24.346      39.965
  O      -28.519      23.909      39.167
  O      -27.229      22.160      37.948
  O      -27.065      22.143      40.481
  H      -26.283      22.369      38.064
  H      -29.815      25.389      39.718
  H      -29.341      24.287      41.025
  H      -30.490      23.747      39.764
  H      -36.462      24.118      37.653
  H      -35.325      25.420      37.399
  H      -34.982      24.178      38.580

 3  4  5  6  7  8  9  10  11  12  13  23  27  28  29  30  32 0
 6-311+G(2d,p)
 ****
 34  35 0
 6-311+G(2d,p)
 ****
 1  2  14  15  16  17  18  19  20  21  22  24  25  26 0
 3-21G
 ****
 31  33  36  37  38  39  40  41  42  43  44  45  46 0
 3-21G
 ****


