%nproc=1
%NoSave
%Mem=1900MB
#P OB98/GEN NMR

erre ene a

0 1
  C     -304.503    -204.913    -280.668
  O     -303.476    -205.189    -279.704
  P     -303.457    -204.324    -278.354
  C     -300.929    -203.721    -278.272
  O     -302.002    -204.455    -277.699
  C     -299.594    -204.158    -277.656
  O     -299.156    -205.434    -278.192
  C     -298.455    -203.182    -277.913
  O     -298.471    -202.110    -276.979
  C     -297.245    -204.070    -277.652
  O     -297.012    -204.189    -276.239
  C     -297.706    -205.411    -278.239
  N     -293.823    -206.850    -281.158
  C     -293.924    -206.779    -279.783
  N     -292.834    -207.157    -279.080
  N     -295.002    -206.378    -279.156
  C     -296.018    -206.052    -279.980
  C     -296.037    -206.079    -281.361
  C     -294.845    -206.509    -282.047
  O     -294.683    -206.572    -283.261
  N     -297.252    -205.664    -281.843
  C     -297.971    -205.413    -280.767
  N     -297.260    -205.614    -279.610
  O     -304.370    -205.199    -277.359
  O     -303.982    -202.934    -278.503
  H     -297.105    -203.296    -275.858
  H     -304.789    -204.616    -276.701
  H     -292.969    -207.157    -281.593
  H     -299.002    -205.081    -280.781
  H     -297.339    -206.268    -277.653
  H     -296.330    -203.661    -278.094
  H     -291.991    -207.523    -279.499
  H     -298.455    -202.835    -278.948
  H     -292.900    -207.143    -278.069
  H     -299.743    -204.272    -276.572
  H     -301.073    -202.648    -278.125
  H     -300.938    -203.870    -279.360
  P     -298.441    -200.610    -277.557
  C     -296.211    -199.630    -276.674
  O     -297.608    -199.743    -276.512
  O     -299.957    -200.128    -277.359
  O     -298.012    -200.508    -278.986
  H     -300.197    -199.498    -278.066
  H     -295.836    -198.877    -275.977
  H     -295.963    -199.317    -277.693
  H     -295.731    -200.584    -276.450
  H     -304.387    -205.564    -281.509
  H     -304.425    -203.896    -280.991
  H     -305.463    -205.073    -280.223

 3  4  5  6  7  8  9  10  11  12  23  26  30  31 0
 6-311+G(2d,p)
 ****
 33  35  36  37  38 0
 6-311+G(2d,p)
 ****
 1  2  13  14  15  16  17  18  19  20  21  22  24  25 0
 3-21G
 ****
 27  28  29  32  34  39  40  41  42  43  44  45  46  47  48  49 0
 3-21G
 ****


