%nproc=1
%NoSave
%Mem=1900MB
#P OB98/GEN NMR

erre ene a

0 1
  C     -387.348    -148.991     291.631
  O     -388.576    -149.680     291.490
  H     -386.603    -149.687     292.036
  H     -387.447    -148.154     292.324
  H     -387.003    -148.633     290.660
  P     -389.871    -148.838     291.057
  C     -390.594    -148.836     293.552
  O     -390.336    -148.060     292.379
  C     -391.339    -148.001     294.587
  O     -390.471    -146.988     295.130
  C     -392.541    -147.256     294.005
  O     -393.629    -148.135     293.793
  C     -392.750    -146.188     295.066
  O     -393.462    -146.709     296.189
  C     -391.291    -145.830     295.437
  N     -390.801    -144.644     294.743
  C     -390.764    -143.459     295.495
  O     -391.111    -143.462     296.674
  N     -390.338    -142.310     294.875
  C     -389.973    -142.329     293.634
  N     -389.561    -141.154     293.086
  C     -389.990    -143.559     292.811
  C     -390.419    -144.663     293.423
  O     -390.968    -149.590     290.369
  O     -389.271    -147.671     290.140
  H     -393.381    -146.036     296.891
  H     -389.238    -147.951     289.206
  H     -389.667    -143.528     291.772
  H     -390.456    -145.608     292.888
  H     -391.207    -145.657     296.518
  H     -393.322    -145.348     294.669
  H     -392.254    -146.754     293.060
  H     -391.651    -148.664     295.408
  H     -389.577    -140.339     293.685
  H     -389.620    -149.150     293.949
  H     -389.176    -141.071     292.154
  H     -391.172    -149.735     293.301
  P     -394.564    -147.979     292.500
  C     -396.389    -146.726     293.837
  O     -395.439    -146.657     292.761
  O     -395.336    -149.196     292.116
  O     -393.532    -147.503     291.357
  H     -392.954    -148.243     291.054
  H     -396.909    -145.794     293.914
  H     -395.875    -146.925     294.754
  H     -397.091    -147.510     293.644

 6  7  8  9  10  11  12  13  14  15  16  26  30  31  32  33  35 0
 6-311+G(2d,p)
 ****
 37  38 0
 6-311+G(2d,p)
 ****
 1  2  3  4  5  17  18  19  20  21  22  23  24  25 0
 3-21G
 ****
 27  28  29  34  36  39  40  41  42  43  44  45  46 0
 3-21G
 ****


