%nproc=1
%NoSave
%Mem=1900MB
#P OB98/GEN NMR

erre ene a

0 1
  C      -41.639    -117.265      38.204
  O      -42.220    -115.994      38.407
  H      -42.176    -117.774      37.400
  H      -41.731    -117.859      39.117
  H      -40.586    -117.173      37.923
  P      -41.407    -114.956      39.319
  C      -41.466    -114.271      41.817
  O      -41.832    -115.237      40.844
  C      -42.133    -114.588      43.157
  O      -43.567    -114.413      43.014
  C      -41.885    -116.020      43.651
  O      -41.713    -115.997      45.070
  C      -43.174    -116.742      43.302
  O      -43.409    -117.877      44.134
  C      -44.200    -115.627      43.467
  N      -48.849    -117.554      43.737
  C      -47.909    -117.345      44.729
  N      -48.258    -117.711      45.981
  N      -46.731    -116.822      44.510
  C      -46.533    -116.470      43.217
  C      -47.381    -116.630      42.144
  C      -48.669    -117.237      42.394
  O      -49.534    -117.469      41.554
  N      -46.801    -116.178      40.984
  C      -45.609    -115.747      41.356
  N      -45.404    -115.897      42.701
  O      -42.107    -113.554      38.987
  O      -39.936    -114.902      39.074
  H      -44.219    -118.322      43.802
  H      -41.467    -112.962      38.551
  H      -49.735    -117.972      43.957
  H      -44.861    -115.329      40.697
  H      -44.503    -115.488      44.511
  H      -43.133    -117.087      42.261
  H      -49.165    -118.075      46.228
  H      -41.014    -116.487      43.187
  H      -47.600    -117.533      46.731
  H      -41.796    -113.853      43.897
  H      -41.787    -113.282      41.476
  H      -40.377    -114.272      41.937
  P      -40.265    -116.391      45.636
  C      -38.934    -118.563      46.123
  O      -40.168    -117.994      45.703
  O      -40.341    -115.952      47.175
  O      -39.136    -115.714      44.931
  H      -39.796    -115.157      47.320
  H      -39.014    -119.630      46.120
  H      -38.704    -118.225      47.112
  H      -38.156    -118.262      45.453

 6  7  8  9  10  11  12  13  14  15  26  29  33  34 0
 6-311+G(2d,p)
 ****
 36  38  39  40  41 0
 6-311+G(2d,p)
 ****
 1  2  3  4  5  16  17  18  19  20  21  22  23  24  25 0
 3-21G
 ****
 27  28  30  31  32  35  37  42  43  44  45  46  47 0
 3-21G
 ****
 48  49 0
 3-21G
 ****


