%nproc=1
%NoSave
%Mem=1900MB
#P OB98/GEN NMR

erre ene a

0 1
  C     -512.125     -75.427    -267.008
  O     -513.054     -74.381    -267.235
  P     -514.521     -74.786    -267.752
  C     -515.668     -73.377    -265.897
  O     -515.478     -74.669    -266.465
  C     -515.653     -73.454    -264.380
  O     -514.363     -73.912    -263.922
  C     -515.888     -72.124    -263.675
  O     -517.266     -71.792    -263.608
  C     -515.331     -72.421    -262.286
  O     -516.321     -73.123    -261.509
  C     -514.146     -73.352    -262.601
  N     -510.942     -70.514    -259.885
  C     -512.177     -71.035    -259.544
  N     -512.606     -70.784    -258.283
  N     -512.922     -71.735    -260.355
  C     -512.347     -71.938    -261.561
  C     -511.135     -71.472    -262.024
  C     -510.341     -70.659    -261.126
  O     -509.271     -70.120    -261.394
  N     -510.887     -71.905    -263.301
  C     -511.925     -72.656    -263.604
  N     -512.856     -72.680    -262.593
  O     -514.399     -76.371    -267.973
  O     -514.979     -74.086    -268.984
  H     -517.030     -72.484    -261.311
  H     -515.054     -76.667    -268.631
  H     -510.404     -69.997    -259.209
  H     -512.048     -73.196    -264.534
  H     -514.104     -74.196    -261.900
  H     -515.063     -71.519    -261.731
  H     -512.026     -70.368    -257.575
  H     -515.303     -71.323    -264.138
  H     -513.495     -71.187    -258.002
  H     -516.402     -74.193    -264.063
  H     -516.637     -72.985    -266.223
  H     -514.874     -72.712    -266.259
  P     -517.721     -70.455    -264.384
  C     -519.483     -71.696    -265.844
  O     -518.269     -70.962    -265.800
  O     -516.331     -69.746    -264.734
  O     -518.626     -69.571    -263.596
  H     -516.458     -68.787    -264.833
  H     -520.196     -71.332    -265.096
  H     -519.268     -72.756    -265.652
  H     -519.928     -71.590    -266.833
  H     -511.198     -75.014    -266.669
  H     -511.964     -75.965    -267.919
  H     -512.512     -76.092    -266.265

 3  4  5  6  7  8  9  10  11  12  23  26  30  31  33  0
 6-311+G(2d,p)
 ****
 35  36  37  38 0
 6-311+G(2d,p)
 ****
 1  2  13  14  15  16  17  18  19  20  21  22  24  25  27  28  29 0
 3-21G
 ****
 32  34  39  40  41  42  43  44  45  46  47  48  49 0
 3-21G
 ****


