%nproc=1
%NoSave
%Mem=1900MB
#P OB98/GEN NMR

erre ene a

0 1
  C      990.485     285.444     336.267
  O      991.628     286.277     336.283
  H      989.633     285.995     336.693
  H      990.667     284.550     336.871
  H      990.233     285.156     335.242
  P      992.929     285.735     335.509
  C      992.237     287.084     333.400
  O      992.591     285.812     333.944
  C      993.400     287.653     332.580
  O      993.934     286.628     331.699
  C      993.022     288.822     331.683
  O      993.015     290.052     332.403
  C      994.161     288.781     330.671
  O      995.351     289.349     331.266
  C      994.335     287.275     330.458
  N      994.320     286.148     325.520
  C      995.312     286.704     326.295
  N      996.474     287.025     325.662
  N      995.197     286.942     327.577
  C      993.981     286.587     328.067
  C      992.919     286.025     327.405
  C      993.069     285.759     325.986
  O      992.228     285.239     325.256
  N      991.856     285.797     328.244
  C      992.271     286.245     329.416
  N      993.546     286.741     329.360
  O      992.904     284.158     335.806
  O      994.222     286.345     335.925
  H      995.298     290.316     331.168
  H      993.826     283.841     335.905
  H      994.466     285.991     324.528
  H      991.686     286.219     330.321
  H      995.381     287.006     330.268
  H      993.947     289.363     329.777
  H      996.606     286.902     324.673
  H      992.066     288.652     331.165
  H      997.225     287.409     326.219
  H      994.197     287.926     333.277
  H      992.008     287.773     334.214
  H      991.350     286.966     332.762
  P      991.585     290.632     332.871
  C      992.076     290.197     335.381
  O      991.255     289.905     334.253
  O      990.569     289.945     331.832
  O      991.482     292.124     332.865
  H      989.753     290.479     331.772
  H      991.733     289.638     336.226
  H      992.022     291.243     335.600
  H      993.089     289.930     335.164

 6  7  8  9  10  11  12  13  14  15  26  29  33  34 0
 6-311+G(2d,p)
 ****
 36  38  39  40  41 0
 6-311+G(2d,p)
 ****
 1  2  3  4  5  16  17  18  19  20  21  22  23  24  25 0
 3-21G
 ****
 27  28  30  31  32  35  37  42  43  44  45  46  47 0
 3-21G
 ****
 48  49 0
 3-21G
 ****


