%nproc=1
%NoSave
%Mem=1900MB
#P OB98/GEN NMR

erre ene a

0 1
  C      726.126     143.535    -204.730
  O      725.164     144.385    -205.308
  P      723.616     143.969    -205.339
  C      722.652     143.400    -207.658
  O      723.452     142.946    -206.568
  C      723.488     144.282    -208.588
  O      724.654     143.581    -209.057
  C      722.759     144.709    -209.858
  O      721.646     145.568    -209.710
  C      723.914     145.206    -210.709
  O      724.284     146.540    -210.357
  C      725.038     144.208    -210.317
  N      725.286     143.221    -211.365
  C      725.243     143.696    -212.675
  O      725.018     144.874    -212.957
  N      725.444     142.763    -213.655
  C      725.623     141.420    -213.469
  O      725.757     140.640    -214.392
  C      725.641     140.971    -212.064
  C      725.472     141.876    -211.098
  O      722.648     145.110    -205.344
  O      723.473     143.001    -204.070
  H      724.455     146.553    -209.396
  H      724.041     142.204    -204.098
  H      725.406     143.086    -214.605
  H      725.801     139.917    -211.877
  H      725.478     141.574    -210.051
  H      725.972     144.747    -210.123
  H      723.661     145.210    -211.783
  H      722.361     143.801    -210.345
  H      723.829     145.150    -208.015
  H      721.807     143.988    -207.267
  H      722.239     142.532    -208.193
  P      720.597     145.862    -210.891
  C      720.367     148.218    -211.968
  O      721.168     147.064    -211.782
  O      719.163     145.908    -210.511
  O      720.842     144.593    -211.862
  H      720.003     144.381    -212.314
  H      720.892     148.910    -212.635
  H      720.195     148.711    -211.013
  H      719.415     147.947    -212.432
  H      727.093     143.986    -204.807
  H      726.128     142.597    -205.245
  H      725.888     143.376    -203.699

 3  4  5  6  7  8  9  10  11  12  13  23  28  29  30  31  32 0
 6-311+G(2d,p)
 ****
 33  34 0
 6-311+G(2d,p)
 ****
 1  2  14  15  16  17  18  19  20  21  22  24  25  26  27 0
 3-21G
 ****
 35  36  37  38  39  40  41  42  43  44  45 0
 3-21G
 ****


