%nproc=1
%NoSave
%Mem=1900MB
#P OB98/GEN NMR

erre ene a

0 1
  C     -503.129     111.137    -303.977
  O     -502.673     111.807    -302.819
  P     -502.827     113.399    -302.742
  C     -504.601     113.350    -300.800
  O     -504.292     113.685    -302.138
  C     -505.642     114.320    -300.235
  O     -505.131     115.679    -300.351
  C     -507.000     114.277    -300.949
  O     -508.005     114.518    -299.956
  C     -506.913     115.457    -301.912
  O     -508.184     115.924    -302.321
  C     -506.113     116.454    -301.068
  N     -505.462     117.498    -301.860
  C     -506.188     118.658    -302.121
  O     -507.349     118.846    -301.751
  N     -505.541     119.609    -302.872
  C     -504.299     119.486    -303.425
  O     -503.771     120.360    -304.101
  C     -503.600     118.220    -303.152
  C     -504.201     117.307    -302.387
  O     -502.965     113.773    -304.292
  O     -501.714     114.079    -302.023
  H     -503.453     113.105    -304.799
  H     -508.053     116.605    -303.006
  H     -506.030     120.467    -303.045
  H     -502.616     118.079    -303.585
  H     -503.705     116.368    -302.170
  H     -506.763     116.917    -300.316
  H     -506.354     115.152    -302.803
  H     -507.182     113.326    -301.444
  H     -505.763     114.110    -299.163
  H     -503.690     113.407    -300.191
  H     -504.964     112.318    -300.761
  P     -509.088     113.352    -299.676
  C     -507.745     111.816    -298.042
  O     -508.270     112.023    -299.335
  O     -509.603     113.081    -301.173
  O     -510.193     113.730    -298.745
  H     -508.877     112.977    -301.806
  H     -507.537     110.749    -297.915
  H     -508.451     112.127    -297.268
  H     -506.806     112.373    -297.933
  H     -502.956     110.086    -303.873
  H     -502.600     111.503    -304.832
  H     -504.177     111.315    -304.103

 3  4  5  6  7  8  9  10  11  12  13  24  28  29  30  31  32 0
 6-311+G(2d,p)
 ****
 33  34 0
 6-311+G(2d,p)
 ****
 1  2  14  15  16  17  18  19  20  21  22  23  25  26  27 0
 3-21G
 ****
 35  36  37  38  39  40  41  42  43  44  45 0
 3-21G
 ****


