%nproc=1
%NoSave
%Mem=1900MB
#P OB98/GEN NMR

erre ene a

0 1
  C     -399.037      54.244    -197.861
  O     -398.287      53.083    -198.210
  P     -399.070      51.751    -198.646
  C     -399.902      51.022    -196.325
  O     -400.275      51.499    -197.610
  C     -401.085      50.396    -195.568
  O     -401.585      49.221    -196.266
  C     -400.756      49.965    -194.134
  O     -401.928      50.206    -193.345
  C     -400.513      48.476    -194.288
  O     -400.597      47.777    -193.059
  C     -401.581      48.130    -195.330
  N     -401.331      46.856    -195.987
  C     -401.575      45.700    -195.252
  O     -401.891      45.776    -194.063
  N     -401.428      44.482    -195.872
  C     -400.933      44.428    -197.070
  N     -400.821      43.208    -197.662
  C     -400.495      45.628    -197.811
  C     -400.743      46.793    -197.225
  O     -398.212      50.562    -198.914
  O     -399.845      52.212    -199.974
  H     -400.433      46.825    -193.223
  H     -399.888      51.457    -200.594
  H     -400.011      45.532    -198.770
  H     -400.460      47.731    -197.692
  H     -402.577      48.094    -194.867
  H     -399.509      48.309    -194.702
  H     -399.914      50.510    -193.696
  H     -401.898      51.134    -195.550
  H     -401.106      42.397    -197.135
  H     -399.503      51.852    -195.739
  H     -400.496      43.091    -198.611
  H     -399.082      50.304    -196.435
  P     -402.266      51.711    -192.898
  C     -400.438      52.157    -191.102
  O     -400.903      52.403    -192.418
  O     -403.030      51.472    -191.506
  O     -403.131      52.495    -193.832
  H     -403.616      52.233    -191.332
  H     -399.390      52.459    -191.039
  H     -400.505      51.097    -190.848
  H     -401.021      52.745    -190.385
  H     -398.367      55.036    -197.597
  H     -399.672      54.022    -197.029
  H     -399.635      54.546    -198.695

 3  4  5  6  7  8  9  10  11  12  13  23  27  28  29  30  32 0
 6-311+G(2d,p)
 ****
 34  35 0
 6-311+G(2d,p)
 ****
 1  2  14  15  16  17  18  19  20  21  22  24  25  26 0
 3-21G
 ****
 31  33  36  37  38  39  40  41  42  43  44  45  46 0
 3-21G
 ****


