%nproc=1
%NoSave
%Mem=1900MB
#P OB98/GEN NMR

erre ene a

0 1
  C     -483.250     137.828    -582.317
  O     -484.191     136.881    -581.813
  P     -485.688     136.933    -582.400
  C     -487.530     138.755    -582.511
  O     -486.149     138.474    -582.396
  C     -487.956     139.880    -581.567
  O     -487.872     139.406    -580.187
  C     -487.090     141.145    -581.651
  O     -487.929     142.272    -581.385
  C     -486.112     140.984    -580.496
  O     -485.531     142.215    -580.096
  C     -487.017     140.325    -579.463
  N     -483.790     140.829    -575.524
  C     -484.372     141.741    -576.318
  N     -485.230     141.520    -577.351
  C     -485.463     140.214    -577.510
  C     -484.912     139.168    -576.802
  C     -484.034     139.501    -575.754
  N     -483.445     138.577    -574.926
  N     -485.361     137.950    -577.285
  C     -486.178     138.262    -578.276
  N     -486.277     139.621    -578.445
  O     -486.549     136.282    -581.219
  O     -485.906     136.207    -583.693
  H     -486.253     142.865    -579.942
  H     -486.898     135.409    -581.494
  H     -484.131     142.776    -576.107
  H     -486.698     137.548    -578.907
  H     -487.670     141.060    -578.959
  H     -485.297     140.300    -580.794
  H     -486.578     141.272    -582.627
  H     -489.010     140.128    -581.759
  H     -488.093     137.851    -582.244
  H     -482.956     138.907    -574.107
  H     -483.770     137.619    -574.962
  H     -487.775     139.011    -583.543
  P     -487.922     143.471    -582.460
  C     -486.413     145.568    -582.729
  O     -486.522     144.237    -582.284
  O     -488.998     144.505    -581.871
  O     -488.267     143.048    -583.865
  H     -489.383     145.031    -582.601
  H     -485.712     146.102    -582.074
  H     -487.398     146.079    -582.701
  H     -486.017     145.593    -583.742
  H     -482.303     137.678    -581.841
  H     -483.598     138.819    -582.114
  H     -483.143     137.697    -583.374

 3  4  5  6  7  8  9  10  11  12  22  25  29  30  31  32 0
 6-311+G(2d,p)
 ****
 33  36  37 0
 6-311+G(2d,p)
 ****
 1  2  13  14  15  16  17  18  19  20  21  23  24  26 0
 3-21G
 ****
 27  28  34  35  38  39  40  41  42  43  44  45  46  47  48 0
 3-21G
 ****


