%nproc=1
%NoSave
%Mem=1900MB
#P OB98/GEN NMR

erre ene a

0 1
  C      124.703    -528.074    1244.320
  O      124.762    -529.411    1243.860
  P      125.176    -529.747    1242.352
  C      125.515    -531.924    1241.020
  O      125.516    -531.300    1242.307
  C      125.521    -533.445    1241.171
  O      126.774    -533.901    1241.763
  C      124.450    -533.995    1242.092
  O      123.106    -533.850    1241.659
  C      124.950    -535.401    1242.334
  O      124.616    -536.281    1241.244
  C      126.483    -535.179    1242.393
  N      127.001    -535.247    1243.764
  C      127.999    -536.162    1243.995
  O      128.487    -536.910    1243.100
  N      128.464    -536.263    1245.286
  C      127.985    -535.555    1246.368
  O      128.391    -535.712    1247.511
  C      126.878    -534.611    1246.055
  C      126.442    -534.490    1244.798
  O      126.237    -528.859    1241.765
  O      123.775    -529.669    1241.557
  H      125.051    -537.132    1241.418
  H      123.113    -530.295    1241.860
  H      129.206    -536.932    1245.473
  H      126.493    -534.030    1246.893
  H      125.673    -533.819    1244.568
  H      127.007    -535.956    1241.797
  H      124.514    -535.843    1243.243
  H      124.504    -533.465    1243.042
  H      125.488    -533.884    1240.168
  H      126.427    -531.611    1240.471
  H      124.631    -531.591    1240.447
  P      121.847    -534.117    1242.604
  C      119.278    -533.721    1242.333
  O      120.592    -533.255    1242.053
  O      122.107    -534.073    1244.090
  O      121.416    -535.610    1242.188
  H      121.048    -536.059    1242.972
  H      118.582    -533.030    1241.852
  H      119.073    -533.688    1243.407
  H      119.137    -534.728    1241.935
  H      124.409    -528.063    1245.349
  H      123.989    -527.528    1243.739
  H      125.667    -527.620    1244.220

 3  4  5  6  7  8  9  10  11  12  13  23  28  29  30  31  32 0
 6-311+G(2d,p)
 ****
 33  34 0
 6-311+G(2d,p)
 ****
 1  2  14  15  16  17  18  19  20  21  22  24  25  26  27 0
 3-21G
 ****
 35  36  37  38  39  40  41  42  43  44  45 0
 3-21G
 ****


