%nproc=1
%NoSave
%Mem=1900MB
#P OB98/GEN NMR

erre ene a

0 1
  C     -180.007     440.202    -786.949
  O     -181.384     440.517    -787.199
  P     -182.111     441.652    -786.343
  C     -183.503     439.957    -784.962
  O     -182.563     441.027    -784.932
  C     -183.452     439.188    -783.635
  O     -183.923     440.001    -782.528
  C     -184.362     437.965    -783.625
  O     -183.987     436.881    -784.461
  C     -184.517     437.677    -782.140
  O     -183.423     436.924    -781.623
  C     -184.519     439.105    -781.550
  N     -185.848     439.568    -781.169
  C     -186.110     439.605    -779.805
  O     -185.314     439.246    -778.941
  N     -187.364     440.047    -779.439
  C     -188.365     440.407    -780.309
  O     -189.473     440.772    -779.936
  C     -188.032     440.327    -781.744
  C     -186.814     439.922    -782.101
  O     -183.156     442.435    -787.048
  O     -180.883     442.609    -785.915
  H     -183.511     436.906    -780.649
  H     -181.189     443.531    -785.985
  H     -187.574     440.092    -778.452
  H     -188.810     440.595    -782.453
  H     -186.555     439.848    -783.149
  H     -183.871     439.152    -780.655
  H     -185.429     437.104    -781.929
  H     -185.361     438.283    -783.985
  H     -182.417     438.908    -783.421
  H     -183.274     439.296    -785.794
  H     -184.502     440.365    -785.142
  P     -184.671     436.585    -785.868
  C     -186.805     435.246    -785.209
  O     -186.257     436.470    -785.665
  O     -184.024     435.552    -786.748
  O     -184.533     438.012    -786.608
  H     -184.421     437.859    -787.556
  H     -187.877     435.345    -785.139
  H     -186.402     434.985    -784.233
  H     -186.561     434.440    -785.926
  H     -179.693     439.424    -787.613
  H     -179.894     439.875    -785.937
  H     -179.407     441.073    -787.111

 3  4  5  6  7  8  9  10  11  12  13  23  28  29  30  31  32 0
 6-311+G(2d,p)
 ****
 33  34 0
 6-311+G(2d,p)
 ****
 1  2  14  15  16  17  18  19  20  21  22  24  25  26  27 0
 3-21G
 ****
 35  36  37  38  39  40  41  42  43  44  45 0
 3-21G
 ****


