%nproc=1
%NoSave
%Mem=1900MB
#P OB98/GEN NMR

erre ene a

0 1
  C      482.807     319.165      83.263
  O      483.438     320.377      82.896
  H      483.372     318.335      82.832
  H      481.788     319.132      82.874
  H      482.793     319.052      84.352
  P      482.792     321.751      83.407
  C      484.123     321.850      85.623
  O      483.904     322.436      84.347
  C      485.450     322.321      86.192
  O      486.550     321.713      85.493
  C      485.666     323.835      86.097
  O      484.983     324.500      87.144
  C      487.180     323.907      86.219
  O      487.567     323.730      87.592
  C      487.615     322.696      85.380
  N      491.098     323.308      81.744
  C      491.253     323.089      83.097
  N      492.529     323.067      83.555
  N      490.263     322.922      83.931
  C      489.050     323.036      83.341
  C      488.763     323.270      82.023
  C      489.876     323.396      81.094
  O      489.777     323.578      79.891
  N      487.413     323.389      81.813
  C      486.881     323.185      82.999
  N      487.836     322.981      83.967
  O      481.440     321.653      84.042
  O      482.786     322.684      82.108
  H      487.039     324.360      88.116
  H      481.936     322.612      81.627
  H      491.904     323.448      81.156
  H      485.820     323.178      83.215
  H      488.533     322.234      85.765
  H      487.590     324.859      85.888
  H      493.294     323.460      83.022
  H      485.376     324.227      85.111
  H      492.673     322.949      84.552
  H      485.512     321.986      87.237
  H      484.127     320.759      85.488
  H      483.310     322.114      86.308
  P      484.732     326.085      87.103
  C      482.822     326.209      85.361
  O      483.180     326.252      86.744
  O      485.660     326.841      86.209
  O      484.792     326.549      88.628
  H      485.702     326.774      88.940
  H      481.764     326.332      85.263
  H      483.111     325.266      84.947
  H      483.323     326.997      84.838

 6  7  8  9  10  11  12  13  14  15  26  29  33  34 0
 6-311+G(2d,p)
 ****
 36  38  39  40  41 0
 6-311+G(2d,p)
 ****
 1  2  3  4  5  16  17  18  19  20  21  22  23  24  25 0
 3-21G
 ****
 27  28  30  31  32  35  37  42  43  44  45  46  47 0
 3-21G
 ****
 48  49 0
 3-21G
 ****


