%nproc=1
%NoSave
%Mem=1900MB
#P OB98/GEN NMR

erre ene a

0 1
  C      381.083     119.362     -70.051
  O      380.676     118.346     -69.130
  P      379.412     118.660     -68.190
  C      380.590     119.350     -65.983
  O      379.834     119.769     -67.111
  C      381.035     120.549     -65.132
  O      381.894     120.110     -64.038
  C      381.824     121.602     -65.917
  O      381.581     122.879     -65.324
  C      383.264     121.206     -65.652
  O      384.168     122.278     -65.922
  C      383.165     120.782     -64.184
  N      388.147     120.533     -63.422
  C      387.366     121.582     -63.870
  N      388.003     122.747     -64.121
  N      386.074     121.499     -64.058
  C      385.567     120.280     -63.729
  C      386.238     119.167     -63.285
  C      387.666     119.264     -63.108
  O      388.412     118.367     -62.724
  N      385.379     118.111     -63.087
  C      384.193     118.589     -63.419
  N      384.252     119.910     -63.785
  O      379.271     117.322     -67.319
  O      378.155     118.943     -68.948
  H      383.848     123.059     -65.420
  H      378.489     116.821     -67.609
  H      389.139     120.653     -63.305
  H      383.273     118.031     -63.416
  H      383.176     121.641     -63.501
  H      383.539     120.353     -66.284
  H      388.984     122.894     -63.951
  H      381.585     121.645     -66.989
  H      387.446     123.542     -64.412
  H      380.148     121.007     -64.685
  H      381.470     118.787     -66.310
  H      379.991     118.642     -65.397
  P      380.700     123.920     -66.170
  C      382.724     124.604     -67.653
  O      381.417     124.054     -67.598
  O      381.000     125.326     -65.466
  O      379.243     123.609     -66.213
  H      380.257     125.942     -65.617
  H      383.447     123.794     -67.796
  H      382.973     125.159     -66.742
  H      382.780     125.285     -68.505
  H      381.930     119.020     -70.608
  H      381.345     120.248     -69.512
  H      380.278     119.578     -70.722

 3  4  5  6  7  8  9  10  11  12  23  26  30  31 0
 6-311+G(2d,p)
 ****
 33  35  36  37  38 0
 6-311+G(2d,p)
 ****
 1  2  13  14  15  16  17  18  19  20  21  22  24  25 0
 3-21G
 ****
 27  28  29  32  34  39  40  41  42  43  44  45  46  47  48  49 0
 3-21G
 ****


