%nproc=1
%NoSave
%Mem=1900MB
#P OB98/GEN NMR

erre ene a

0 1
  C     -110.472     484.597     933.086
  O     -111.538     484.099     932.300
  H     -109.584     483.973     932.913
  H     -110.732     484.542     934.156
  H     -110.241     485.626     932.810
  P     -112.954     484.840     932.386
  C     -114.769     485.134     934.219
  O     -113.447     484.668     933.904
  C     -115.432     484.183     935.205
  O     -114.741     484.199     936.472
  C     -116.889     484.530     935.500
  O     -117.733     484.042     934.476
  C     -117.078     483.802     936.834
  O     -117.237     482.395     936.591
  C     -115.731     484.086     937.521
  N     -116.320     486.021     942.177
  C     -116.496     484.733     941.721
  N     -116.931     483.825     942.642
  N     -116.285     484.350     940.503
  C     -115.921     485.372     939.673
  C     -115.737     486.701     939.998
  C     -115.920     487.095     941.391
  O     -115.753     488.230     941.834
  N     -115.424     487.447     938.888
  C     -115.397     486.565     937.904
  N     -115.705     485.302     938.324
  O     -113.978     484.442     931.368
  O     -112.589     486.398     932.290
  H     -118.081     482.283     936.104
  H     -112.627     486.707     931.370
  H     -116.514     486.255     943.129
  H     -115.150     486.800     936.882
  H     -115.424     483.256     938.172
  H     -117.953     484.140     937.388
  H     -117.364     484.120     943.497
  H     -117.028     485.607     935.665
  H     -117.110     482.884     942.317
  H     -115.348     483.161     934.800
  H     -115.329     485.176     933.272
  H     -114.719     486.143     934.642
  P     -118.942     484.929     933.907
  C     -120.874     486.277     934.993
  O     -119.778     485.396     935.203
  O     -119.765     484.281     932.848
  O     -118.261     486.304     933.428
  H     -117.934     486.276     932.490
  H     -121.335     486.503     935.932
  H     -121.589     485.810     934.348
  H     -120.523     487.181     934.541

 6  7  8  9  10  11  12  13  14  15  26  29  33  34 0
 6-311+G(2d,p)
 ****
 36  38  39  40  41 0
 6-311+G(2d,p)
 ****
 1  2  3  4  5  16  17  18  19  20  21  22  23  24  25 0
 3-21G
 ****
 27  28  30  31  32  35  37  42  43  44  45  46  47 0
 3-21G
 ****
 48  49 0
 3-21G
 ****


