%nproc=1
%NoSave
%Mem=1900MB
#P OB98/GEN NMR

erre ene a

0 1
  C     -373.878    -655.204     410.653
  O     -373.473    -655.154     409.283
  P     -374.606    -654.906     408.180
  C     -375.276    -657.383     407.767
  O     -375.672    -656.115     408.248
  C     -376.278    -657.950     406.752
  O     -376.594    -656.948     405.741
  C     -375.774    -659.190     406.004
  O     -376.900    -660.001     405.668
  C     -375.206    -658.588     404.726
  O     -375.069    -659.579     403.700
  C     -376.239    -657.494     404.450
  N     -374.714    -656.471     399.753
  C     -375.158    -657.660     400.314
  N     -375.231    -658.730     399.485
  N     -375.487    -657.795     401.569
  C     -375.388    -656.625     402.262
  C     -374.972    -655.399     401.833
  C     -374.568    -655.271     400.452
  O     -374.153    -654.262     399.903
  N     -374.978    -654.469     402.844
  C     -375.425    -655.144     403.885
  N     -375.710    -656.438     403.591
  O     -373.826    -655.174     406.795
  O     -375.191    -653.532     408.204
  H     -375.973    -659.942     403.539
  H     -373.674    -654.337     406.329
  H     -374.450    -656.438     398.785
  H     -375.536    -654.743     404.894
  H     -377.140    -657.883     403.988
  H     -374.211    -658.160     404.920
  H     -375.037    -658.686     398.492
  H     -375.042    -659.789     406.547
  H     -375.590    -659.596     399.868
  H     -377.214    -658.172     407.286
  H     -375.182    -658.095     408.615
  H     -374.271    -657.311     407.340
  P     -377.277    -661.166     406.691
  C     -375.857    -663.112     405.707
  O     -376.014    -662.154     406.749
  O     -378.387    -662.026     405.881
  O     -377.796    -660.703     408.000
  H     -378.967    -662.501     406.505
  H     -375.063    -662.764     405.013
  H     -376.780    -663.263     405.166
  H     -375.535    -664.057     406.168
  H     -373.022    -655.375     411.272
  H     -374.580    -656.000     410.788
  H     -374.335    -654.275     410.924

 3  4  5  6  7  8  9  10  11  12  23  26  30  31 0
 6-311+G(2d,p)
 ****
 33  35  36  37  38 0
 6-311+G(2d,p)
 ****
 1  2  13  14  15  16  17  18  19  20  21  22  24  25 0
 3-21G
 ****
 27  28  29  32  34  39  40  41  42  43  44  45  46  47  48  49 0
 3-21G
 ****


