%nproc=1
%NoSave
%Mem=1900MB
#P OB98/GEN NMR

erre ene a

0 1
  C      305.803     541.225     511.895
  O      305.704     540.108     511.042
  P      306.063     540.194     509.481
  C      308.390     539.219     509.990
  O      307.680     540.291     509.409
  C      309.216     538.465     508.947
  O      310.016     539.416     508.170
  C      310.185     537.412     509.516
  O      310.235     536.352     508.542
  C      311.499     538.160     509.552
  O      312.623     537.295     509.640
  C      311.407     538.995     508.278
  N      312.310     540.133     508.286
  C      313.307     540.155     507.299
  O      313.407     539.198     506.515
  N      314.173     541.224     507.240
  C      314.123     542.129     508.163
  N      315.009     543.164     508.055
  C      313.173     542.076     509.297
  C      312.296     541.085     509.278
  O      305.344     541.269     508.726
  O      305.784     538.713     508.940
  H      313.403     537.757     509.230
  H      304.808     538.575     508.824
  H      313.213     542.835     510.070
  H      311.569     540.972     510.079
  H      311.622     538.382     507.398
  H      311.526     538.821     510.442
  H      309.874     537.029     510.497
  H      308.518     538.000     508.229
  H      315.624     543.163     507.254
  H      307.665     538.519     510.426
  H      314.987     543.965     508.668
  H      309.028     539.584     510.799
  P      310.532     534.839     508.994
  C      308.123     534.113     508.558
  O      309.158     534.220     509.518
  O      311.703     534.671     509.930
  O      310.783     534.058     507.612
  H      311.222     533.206     507.807
  H      307.339     533.438     508.934
  H      308.505     533.721     507.618
  H      307.681     535.109     508.392
  H      305.517     540.943     512.887
  H      305.155     542.000     511.544
  H      306.812     541.580     511.902

 3  4  5  6  7  8  9  10  11  12  13  23  27  28  29  30  32 0
 6-311+G(2d,p)
 ****
 34  35 0
 6-311+G(2d,p)
 ****
 1  2  14  15  16  17  18  19  20  21  22  24  25  26 0
 3-21G
 ****
 31  33  36  37  38  39  40  41  42  43  44  45  46 0
 3-21G
 ****


