%nproc=1
%NoSave
%Mem=1900MB
#P OB98/GEN NMR

erre ene a

0 1
  C      -59.513     502.032      43.769
  O      -58.461     502.888      44.171
  H      -59.112     501.030      43.609
  H      -59.945     502.394      42.829
  H      -60.289     501.981      44.537
  P      -58.878     504.315      44.775
  C      -58.387     505.334      42.436
  O      -59.295     505.236      43.527
  C      -58.288     506.781      41.959
  O      -57.099     506.968      41.155
  C      -59.464     507.240      41.101
  O      -60.561     507.660      41.902
  C      -58.839     508.424      40.376
  O      -58.775     509.561      41.268
  C      -57.419     507.906      40.093
  N      -54.869     507.820      35.703
  C      -54.786     508.703      36.764
  N      -53.896     509.720      36.633
  N      -55.502     508.616      37.852
  C      -56.365     507.565      37.836
  C      -56.542     506.628      36.844
  C      -55.734     506.731      35.651
  O      -55.764     505.971      34.691
  N      -57.512     505.715      37.189
  C      -57.928     506.114      38.370
  N      -57.266     507.237      38.808
  O      -57.470     504.923      45.247
  O      -59.851     504.265      45.904
  H      -59.695     509.865      41.401
  H      -57.392     504.833      46.218
  H      -54.295     507.946      34.886
  H      -58.699     505.624      38.952
  H      -56.670     508.707      40.123
  H      -59.412     508.736      39.499
  H      -53.326     509.858      35.811
  H      -59.756     506.478      40.373
  H      -53.816     510.376      37.399
  H      -58.182     507.417      42.847
  H      -58.742     504.705      41.619
  H      -57.404     504.979      42.765
  P      -61.899     506.772      41.871
  C      -62.800     508.117      39.838
  O      -62.470     506.833      40.372
  O      -62.935     507.671      42.701
  O      -61.778     505.407      42.453
  H      -63.148     507.233      43.553
  H      -63.165     508.004      38.839
  H      -61.927     508.736      39.831
  H      -63.555     508.572      40.445

 6  7  8  9  10  11  12  13  14  15  26  29  33  34 0
 6-311+G(2d,p)
 ****
 36  38  39  40  41 0
 6-311+G(2d,p)
 ****
 1  2  3  4  5  16  17  18  19  20  21  22  23  24  25 0
 3-21G
 ****
 27  28  30  31  32  35  37  42  43  44  45  46  47 0
 3-21G
 ****
 48  49 0
 3-21G
 ****


