%nproc=1
%NoSave
%Mem=1900MB
#P OB98/GEN NMR

erre ene a

0 1
  C      -47.634     503.337     -36.969
  O      -48.639     502.840     -37.827
  H      -46.800     502.628     -36.953
  H      -48.031     503.436     -35.957
  H      -47.263     504.306     -37.322
  P      -49.811     503.855     -38.250
  C      -50.016     502.793     -40.608
  O      -50.674     503.126     -39.396
  C      -50.965     502.039     -41.537
  O      -51.239     500.726     -40.980
  C      -52.320     502.744     -41.744
  O      -52.729     502.576     -43.108
  C      -53.264     501.971     -40.836
  O      -54.627     502.050     -41.261
  C      -52.666     500.568     -40.907
  N      -55.698     496.873     -39.298
  C      -55.499     497.377     -40.574
  N      -56.231     496.816     -41.567
  N      -54.661     498.344     -40.844
  C      -53.981     498.784     -39.755
  C      -54.090     498.371     -38.445
  C      -55.043     497.324     -38.156
  O      -55.280     496.851     -37.049
  N      -53.250     499.091     -37.627
  C      -52.636     499.927     -38.438
  N      -53.041     499.776     -39.747
  O      -49.029     505.007     -39.040
  O      -50.611     504.414     -37.116
  H      -55.157     501.512     -40.633
  H      -49.105     505.847     -38.557
  H      -56.371     496.135     -39.145
  H      -51.902     500.670     -38.142
  H      -52.997     500.021     -41.795
  H      -53.201     502.373     -39.815
  H      -56.847     496.040     -41.441
  H      -52.294     503.806     -41.501
  H      -56.065     497.144     -42.513
  H      -50.461     501.880     -42.504
  H      -49.155     502.156     -40.374
  H      -49.670     503.710     -41.094
  P      -52.646     503.876     -44.058
  C      -52.489     502.503     -46.247
  O      -53.212     503.478     -45.509
  O      -51.074     504.057     -44.289
  O      -53.251     505.101     -43.447
  H      -50.743     504.828     -43.798
  H      -52.973     502.335     -47.186
  H      -52.458     501.588     -45.694
  H      -51.492     502.851     -46.417

 6  7  8  9  10  11  12  13  14  15  26  29  33  34 0
 6-311+G(2d,p)
 ****
 36  38  39  40  41 0
 6-311+G(2d,p)
 ****
 1  2  3  4  5  16  17  18  19  20  21  22  23  24  25 0
 3-21G
 ****
 27  28  30  31  32  35  37  42  43  44  45  46  47 0
 3-21G
 ****
 48  49 0
 3-21G
 ****


