%nproc=1
%NoSave
%Mem=1900MB
#P OB98/GEN NMR

erre ene a

0 1
  C      157.497      54.339     125.621
  O      156.319      54.383     124.806
  P      154.897      54.212     125.525
  C      153.640      52.197     126.592
  O      154.541      52.649     125.591
  C      152.656      51.179     126.008
  O      151.739      51.794     125.077
  C      153.325      50.057     125.230
  O      153.806      49.037     126.095
  C      152.162      49.537     124.399
  O      151.333      48.676     125.203
  C      151.408      50.827     124.054
  N      150.131      51.029     119.097
  C      149.597      50.354     120.139
  N      150.004      50.337     121.426
  C      151.072      51.132     121.596
  C      151.727      51.879     120.630
  C      151.215      51.810     119.324
  N      151.761      52.502     118.268
  N      152.791      52.562     121.178
  C      152.773      52.245     122.456
  N      151.757      51.378     122.756
  O      153.870      54.776     124.436
  O      154.781      54.947     126.820
  H      150.654      48.300     124.612
  H      153.124      55.219     124.882
  H      148.726      49.748     119.909
  H      153.466      52.619     123.199
  H      150.320      50.690     124.067
  H      152.490      48.948     123.538
  H      154.113      50.449     124.572
  H      152.073      50.756     126.836
  H      153.095      53.044     127.017
  H      151.322      52.424     117.365
  H      152.555      53.102     118.437
  H      154.214      51.756     127.414
  P      155.343      48.605     125.937
  C      156.538      46.811     124.487
  O      155.385      47.605     124.686
  O      155.581      47.656     127.204
  O      156.304      49.745     125.901
  H      156.512      47.711     127.493
  H      156.289      45.995     123.804
  H      156.893      46.384     125.430
  H      157.330      47.417     124.037
  H      158.362      54.467     125.005
  H      157.551      53.394     126.120
  H      157.458      55.124     126.347

 3  4  5  6  7  8  9  10  11  12  22  25  29  30  31  32 0
 6-311+G(2d,p)
 ****
 33  36  37 0
 6-311+G(2d,p)
 ****
 1  2  13  14  15  16  17  18  19  20  21  23  24  26 0
 3-21G
 ****
 27  28  34  35  38  39  40  41  42  43  44  45  46  47  48 0
 3-21G
 ****


