%nproc=1
%NoSave
%Mem=1900MB
#P OB98/GEN NMR

erre ene a

0 1
  C     1810.321     -79.983     238.886
  O     1809.374     -79.019     239.286
  H     1811.224     -79.857     239.481
  H     1810.574     -79.841     237.829
  H     1809.933     -80.989     239.038
  P     1807.888     -79.153     238.707
  C     1806.575     -79.764     240.877
  O     1807.127     -80.219     239.640
  C     1807.413     -80.306     242.048
  O     1808.753     -79.749     241.965
  C     1806.850     -79.944     243.432
  O     1807.089     -81.029     244.316
  C     1807.706     -78.765     243.837
  O     1807.766     -78.562     245.249
  C     1809.062     -79.167     243.241
  N     1809.967     -78.018     243.089
  C     1810.691     -77.634     244.232
  O     1810.684     -78.225     245.288
  N     1811.444     -76.509     244.072
  C     1811.527     -75.733     242.945
  O     1812.210     -74.719     242.891
  C     1810.750     -76.187     241.807
  C     1810.013     -77.287     241.922
  O     1808.116     -79.957     237.338
  O     1807.146     -77.874     238.508
  H     1808.262     -79.338     236.605
  H     1808.146     -77.671     245.412
  H     1811.967     -76.211     244.891
  H     1810.786     -75.592     240.889
  H     1809.394     -77.636     241.094
  H     1809.529     -79.935     243.848
  H     1807.334     -77.829     243.381
  H     1805.774     -79.684     243.429
  H     1807.508     -81.389     241.946
  H     1805.544     -80.129     240.972
  H     1806.570     -78.675     240.889
  P     1806.116     -82.305     244.183
  C     1807.942     -84.177     244.390
  O     1807.030     -83.469     243.555
  O     1805.162     -81.856     242.973
  O     1805.427     -82.644     245.460
  H     1805.620     -81.318     242.308
  H     1808.463     -84.909     243.809
  H     1807.402     -84.663     245.176
  H     1808.646     -83.490     244.812

 6  7  8  9  10  11  12  13  14  15  16  27  31  32  33  34  35 0
 6-311+G(2d,p)
 ****
 36  37 0
 6-311+G(2d,p)
 ****
 1  2  3  4  5  17  18  19  20  21  22  23  24  25 0
 3-21G
 ****
 26  28  29  30  38  39  40  41  42  43  44  45 0
 3-21G
 ****


