%nproc=1
%NoSave
%Mem=1900MB
#P OB98/GEN NMR

erre ene a

0 1
  C     -945.909     185.743     533.587
  O     -947.106     185.080     533.949
  H     -946.138     186.473     532.805
  H     -945.191     185.022     533.191
  H     -945.483     186.262     534.447
  P     -947.009     184.021     535.149
  C     -948.358     185.232     537.004
  O     -947.076     184.874     536.512
  C     -948.405     186.714     537.364
  O     -948.230     187.506     536.147
  C     -949.720     187.167     538.021
  O     -949.405     188.182     538.986
  C     -950.464     187.823     536.869
  O     -951.465     188.733     537.310
  C     -949.297     188.474     536.129
  N     -951.749     191.904     533.384
  C     -951.526     191.838     534.746
  N     -952.029     192.843     535.492
  N     -950.860     190.872     535.326
  C     -950.383     189.954     534.445
  C     -950.534     189.899     533.085
  C     -951.300     190.968     532.457
  O     -951.548     191.066     531.263
  N     -949.926     188.791     532.559
  C     -949.401     188.176     533.602
  N     -949.651     188.844     534.770
  O     -945.481     183.547     535.077
  O     -947.954     182.873     535.070
  H     -951.018     189.554     537.610
  H     -945.404     182.738     534.537
  H     -952.276     192.663     532.989
  H     -948.841     187.255     533.567
  H     -948.945     189.386     536.623
  H     -950.949     187.056     536.248
  H     -952.508     193.639     535.114
  H     -950.283     186.366     538.500
  H     -951.837     192.833     536.490
  H     -947.543     186.944     538.012
  H     -948.576     184.641     537.900
  H     -949.112     185.012     536.237
  P     -948.597     187.747     540.297
  C     -946.573     189.390     540.324
  O     -947.046     188.077     540.047
  O     -948.635     186.152     540.220
  O     -949.173     188.261     541.576
  H     -948.574     185.781     541.125
  H     -945.527     189.445     540.107
  H     -946.735     189.617     541.357
  H     -947.101     190.095     539.717

 6  7  8  9  10  11  12  13  14  15  26  29  33  34 0
 6-311+G(2d,p)
 ****
 36  38  39  40  41 0
 6-311+G(2d,p)
 ****
 1  2  3  4  5  16  17  18  19  20  21  22  23  24  25 0
 3-21G
 ****
 27  28  30  31  32  35  37  42  43  44  45  46  47 0
 3-21G
 ****
 48  49 0
 3-21G
 ****


