%nproc=1
%NoSave
%Mem=1900MB
#P OB98/GEN NMR

erre ene a

0 1
  C       87.540     395.660     585.882
  O       88.548     396.648     585.856
  H       87.188     395.548     586.911
  H       87.956     394.704     585.547
  H       86.695     395.931     585.247
  P       88.984     397.263     584.443
  C       90.250     396.369     582.375
  O       89.991     396.208     583.761
  C       91.465     395.552     581.943
  O       92.668     396.125     582.503
  C       91.374     394.112     582.486
  O       92.044     393.175     581.655
  C       92.102     394.210     583.813
  O       92.567     392.948     584.288
  C       93.206     395.208     583.475
  N       95.168     394.972     588.175
  C       94.675     393.949     587.383
  N       94.685     392.703     587.920
  N       94.202     394.134     586.176
  C       94.183     395.440     585.799
  C       94.619     396.536     586.510
  C       95.181     396.308     587.824
  O       95.624     397.173     588.576
  N       94.423     397.703     585.802
  C       93.861     397.310     584.671
  N       93.706     395.941     584.617
  O       89.969     398.466     584.839
  O       87.866     397.731     583.561
  H       93.214     393.125     584.998
  H       89.987     399.137     584.131
  H       95.539     394.764     589.091
  H       93.558     397.965     583.868
  H       94.067     394.687     583.017
  H       91.396     394.600     584.567
  H       94.879     392.543     588.892
  H       90.336     393.798     582.619
  H       94.072     392.009     587.479
  H       91.582     395.574     580.852
  H       90.433     397.433     582.203
  H       89.365     396.091     581.792
  P       91.316     391.768     581.374
  C       92.074     389.248     581.338
  O       92.384     390.604     581.638
  O       91.100     391.752     579.792
  O       90.030     391.605     582.123
  H       90.176     391.923     579.573
  H       92.911     388.628     581.583
  H       91.855     389.155     580.295
  H       91.223     388.942     581.910

 6  7  8  9  10  11  12  13  14  15  26  29  33  34 0
 6-311+G(2d,p)
 ****
 36  38  39  40  41 0
 6-311+G(2d,p)
 ****
 1  2  3  4  5  16  17  18  19  20  21  22  23  24  25 0
 3-21G
 ****
 27  28  30  31  32  35  37  42  43  44  45  46  47 0
 3-21G
 ****
 48  49 0
 3-21G
 ****


