%nproc=1
%NoSave
%Mem=1900MB
#P OB98/GEN NMR

erre ene a

0 1
  C      -87.258      30.054    -294.229
  O      -86.412      30.244    -293.111
  H      -88.232      29.702    -293.879
  H      -86.834      29.302    -294.901
  H      -87.393      30.999    -294.764
  P      -84.907      30.701    -293.430
  C      -84.251      28.195    -293.437
  O      -84.185      29.442    -294.114
  C      -82.878      27.524    -293.418
  O      -82.904      26.334    -292.600
  C      -82.364      27.106    -294.790
  O      -81.748      28.194    -295.455
  C      -81.377      26.009    -294.418
  O      -80.122      26.572    -293.974
  C      -82.099      25.312    -293.255
  N      -82.375      20.277    -293.516
  C      -81.329      21.091    -293.141
  N      -80.169      20.481    -292.808
  N      -81.400      22.397    -293.099
  C      -82.598      22.877    -293.512
  C      -83.711      22.172    -293.914
  C      -83.634      20.726    -293.900
  O      -84.551      19.949    -294.143
  N      -84.744      23.019    -294.241
  C      -84.244      24.227    -294.070
  N      -82.941      24.195    -293.636
  O      -84.225      30.775    -291.980
  O      -84.772      32.000    -294.154
  H      -79.676      26.991    -294.731
  H      -83.615      31.535    -291.960
  H      -82.271      19.277    -293.499
  H      -84.778      25.151    -294.238
  H      -81.394      24.930    -292.507
  H      -81.142      25.370    -295.268
  H      -79.967      19.534    -293.093
  H      -83.170      26.675    -295.398
  H      -79.383      21.084    -292.603
  H      -82.177      28.224    -292.944
  H      -84.965      27.548    -293.954
  H      -84.595      28.360    -292.411
  P      -81.911      28.303    -297.046
  C      -79.521      27.357    -297.414
  O      -80.904      27.249    -297.721
  O      -81.244      29.724    -297.377
  O      -83.322      28.245    -297.531
  H      -81.945      30.376    -297.573
  H      -78.980      26.594    -297.933
  H      -79.380      27.241    -296.360
  H      -79.162      28.318    -297.718

 6  7  8  9  10  11  12  13  14  15  26  29  33  34 0
 6-311+G(2d,p)
 ****
 36  38  39  40  41 0
 6-311+G(2d,p)
 ****
 1  2  3  4  5  16  17  18  19  20  21  22  23  24  25 0
 3-21G
 ****
 27  28  30  31  32  35  37  42  43  44  45  46  47 0
 3-21G
 ****
 48  49 0
 3-21G
 ****


