%nproc=1
%NoSave
%Mem=1900MB
#P OB98/GEN NMR

erre ene a

0 1
  C     1034.767    -892.970     386.874
  O     1034.621    -892.520     388.207
  H     1034.122    -892.360     386.243
  H     1034.468    -894.010     386.788
  H     1035.791    -892.830     386.545
  P     1035.427    -893.280     389.369
  C     1033.681    -895.040     390.117
  O     1034.882    -894.790     389.394
  C     1033.242    -896.490     389.948
  O     1034.218    -897.330     390.648
  C     1031.845    -896.780     390.561
  O     1030.963    -897.400     389.634
  C     1032.179    -897.510     391.868
  O     1031.136    -898.360     392.325
  C     1033.497    -898.200     391.551
  N     1034.305    -898.500     392.712
  C     1033.713    -899.220     393.751
  O     1032.564    -899.660     393.746
  N     1034.519    -899.460     394.843
  C     1035.814    -899.060     395.003
  O     1036.469    -899.290     396.015
  C     1036.373    -898.270     393.897
  C     1035.611    -898.030     392.824
  O     1035.433    -892.600     390.697
  O     1036.901    -893.430     388.773
  H     1031.436    -898.750     393.152
  H     1037.496    -892.800     389.214
  H     1034.099    -900.000     395.583
  H     1037.392    -897.910     393.990
  H     1036.010    -897.440     391.985
  H     1033.325    -899.140     391.022
  H     1032.343    -896.740     392.654
  H     1031.337    -895.830     390.791
  H     1033.266    -896.750     388.888
  H     1032.903    -894.350     389.735
  H     1033.834    -894.820     391.187
  P     1029.869    -896.640     388.749
  C     1027.646    -896.550     390.157
  O     1028.840    -895.890     389.726
  O     1029.288    -897.440     387.639
  O     1030.709    -895.400     388.096
  H     1030.304    -895.250     387.236
  H     1027.090    -895.898     390.798
  H     1027.904    -897.441     390.691
  H     1027.051    -896.804     389.305

 6  7  8  9  10  11  12  13  14  15  16  26  31  32  33  34  35 0
 6-311+G(2d,p)
 ****
 36  37 0
 6-311+G(2d,p)
 ****
 1  2  3  4  5  17  18  19  20  21  22  23  24  25 0
 3-21G
 ****
 27  28  29  30  38  39  40  41  42  43  44  45 0
 3-21G
 ****


