%nproc=1
%NoSave
%Mem=1900MB
#P OB98/GEN NMR

erre ene a

0 1
  C     -575.315    -323.102    -192.317
  O     -575.291    -323.887    -193.496
  H     -576.079    -323.502    -191.639
  H     -575.572    -322.062    -192.545
  H     -574.346    -323.141    -191.815
  P     -574.365    -323.405    -194.709
  C     -572.507    -325.181    -194.433
  O     -572.874    -323.815    -194.296
  C     -571.811    -325.405    -195.774
  O     -570.667    -324.536    -195.895
  C     -571.281    -326.827    -195.943
  O     -572.330    -327.726    -196.233
  C     -570.270    -326.616    -197.056
  O     -570.904    -326.563    -198.337
  C     -569.674    -325.241    -196.676
  N     -568.411    -325.358    -195.937
  C     -567.250    -325.228    -196.699
  O     -567.308    -325.024    -197.910
  N     -566.034    -325.353    -196.060
  C     -565.991    -325.574    -194.784
  N     -564.762    -325.685    -194.217
  C     -567.205    -325.701    -193.952
  C     -568.366    -325.588    -194.586
  O     -574.517    -321.981    -195.150
  O     -574.713    -324.439    -195.882
  H     -571.381    -327.408    -198.438
  H     -575.455    -324.110    -196.419
  H     -567.120    -325.879    -192.885
  H     -569.300    -325.669    -194.041
  H     -569.490    -324.642    -197.575
  H     -569.534    -327.418    -197.082
  H     -570.736    -327.136    -195.044
  H     -572.515    -325.151    -196.579
  H     -563.961    -325.606    -194.829
  H     -573.426    -325.779    -194.380
  H     -564.610    -325.773    -193.227
  H     -571.845    -325.493    -193.613
  P     -572.283    -329.236    -195.691
  C     -573.549    -328.667    -193.516
  O     -572.322    -329.112    -194.087
  O     -571.178    -330.069    -196.237
  O     -573.740    -329.793    -196.038
  H     -573.839    -329.980    -197.007
  H     -573.452    -328.625    -192.451
  H     -574.332    -329.349    -193.777
  H     -573.785    -327.693    -193.891

 6  7  8  9  10  11  12  13  14  15  16  26  30  31  32  33  35 0
 6-311+G(2d,p)
 ****
 37  38 0
 6-311+G(2d,p)
 ****
 1  2  3  4  5  17  18  19  20  21  22  23  24  25 0
 3-21G
 ****
 27  28  29  34  36  39  40  41  42  43  44  45  46 0
 3-21G
 ****


