%nproc=1
%NoSave
%Mem=1900MB
#P OB98/GEN NMR

erre ene a

0 1
  C      835.869    -688.478     232.901
  O      837.098    -689.216     233.000
  P      837.937    -689.043     234.354
  C      839.112    -686.807     233.693
  O      838.218    -687.484     234.570
  C      838.890    -685.298     233.687
  O      839.078    -684.749     235.041
  C      839.863    -684.535     232.761
  O      839.151    -683.413     232.248
  C      840.942    -684.047     233.710
  O      841.656    -682.940     233.150
  C      840.098    -683.722     234.952
  N      840.899    -683.662     236.195
  C      841.041    -682.393     236.788
  O      840.545    -681.383     236.249
  N      841.729    -682.304     237.966
  C      842.307    -683.353     238.460
  N      842.995    -683.191     239.628
  C      842.245    -684.689     237.820
  C      841.519    -684.764     236.701
  O      839.383    -689.627     233.946
  O      837.362    -689.760     235.519
  H      841.008    -682.260     232.876
  H      839.681    -690.253     234.632
  H      842.766    -685.536     238.270
  H      841.419    -685.697     236.155
  H      839.588    -682.755     234.838
  H      841.653    -684.859     233.916
  H      840.230    -685.134     231.938
  H      837.861    -685.103     233.398
  H      843.006    -682.260     240.034
  H      838.966    -687.176     232.675
  H      843.480    -683.925     240.088
  H      840.138    -687.078     233.975
  P      838.529    -683.498     230.758
  C      840.224    -682.203     229.316
  O      839.801    -683.485     229.785
  O      837.946    -682.016     230.556
  O      837.488    -684.522     230.502
  H      837.480    -681.956     229.717
  H      841.158    -682.327     228.781
  H      840.380    -681.520     230.136
  H      839.474    -681.788     228.616
  H      835.408    -688.678     231.957
  H      836.074    -687.431     232.983
  H      835.210    -688.775     233.690

 3  4  5  6  7  8  9  10  11  12  13  21  23  27  28  29  30  32 0
 6-311+G(2d,p)
 ****
 34  35 0
 6-311+G(2d,p)
 ****
 1  2  14  15  16  17  18  19  20  22  24  25  26 0
 3-21G
 ****
 31  33  36  37  38  39  40  41  42  43  44  45  46 0
 3-21G
 ****


