%nproc=1
%NoSave
%Mem=1900MB
#P OB98/GEN NMR

erre ene a

0 1
  C      242.636    -895.900     -47.839
  O      243.597    -896.900     -47.519
  P      244.891    -897.058     -48.461
  C      246.494    -896.036     -46.619
  O      246.048    -896.087     -47.967
  C      247.918    -895.470     -46.577
  O      248.864    -896.446     -47.111
  C      248.099    -894.195     -47.384
  O      247.766    -893.042     -46.638
  C      249.560    -894.260     -47.784
  O      250.395    -893.870     -46.672
  C      249.723    -895.771     -48.069
  N      249.391    -896.267     -49.437
  C      250.144    -895.878     -50.531
  O      251.132    -895.128     -50.451
  N      249.793    -896.388     -51.744
  C      248.860    -897.355     -51.956
  O      248.607    -897.831     -53.063
  C      248.173    -897.860     -50.766
  C      248.451    -897.276     -49.572
  O      244.421    -896.397     -49.857
  O      245.363    -898.460     -48.646
  H      249.982    -893.093     -46.263
  H      244.394    -897.071     -50.559
  H      250.292    -896.062     -52.558
  H      247.453    -898.670     -50.870
  H      247.945    -897.636     -48.677
  H      250.748    -896.104     -47.869
  H      249.788    -893.573     -48.591
  H      247.494    -894.255     -48.314
  H      248.193    -895.299     -45.531
  H      246.471    -897.029     -46.167
  H      245.829    -895.402     -46.033
  P      246.928    -891.858     -47.304
  C      245.087    -892.325     -45.587
  O      245.378    -892.165     -46.945
  O      247.201    -891.599     -48.770
  O      247.233    -890.595     -46.383
  H      247.962    -890.054     -46.786
  H      243.997    -892.371     -45.449
  H      245.473    -891.480     -44.999
  H      245.530    -893.273     -45.219
  H      241.843    -895.925     -47.121
  H      242.239    -896.086     -48.815
  H      243.103    -894.938     -47.821

 3  4  5  6  7  8  9  10  11  12  13  23  28  29  30  31  32 0
 6-311+G(2d,p)
 ****
 33  34 0
 6-311+G(2d,p)
 ****
 1  2  14  15  16  17  18  19  20  21  22  24  25  26  27 0
 3-21G
 ****
 35  36  37  38  39  40  41  42  43  44  45 0
 3-21G
 ****


