%nproc=1
%NoSave
%Mem=1900MB
#P OB98/GEN NMR

erre ene a

0 1
  C      -97.616     -30.843    -149.195
  O      -97.041     -32.130    -149.169
  P      -95.833     -32.522    -150.144
  C      -94.110     -32.317    -148.236
  O      -94.505     -31.856    -149.524
  C      -92.759     -33.038    -148.321
  O      -91.752     -32.090    -148.797
  C      -92.285     -33.586    -146.958
  O      -91.935     -34.972    -146.967
  C      -91.165     -32.631    -146.583
  O      -90.257     -33.152    -145.631
  C      -90.595     -32.267    -147.958
  N      -89.749     -31.075    -147.918
  C      -88.393     -31.267    -147.674
  O      -87.866     -32.362    -147.502
  N      -87.637     -30.132    -147.563
  C      -88.108     -28.853    -147.559
  O      -87.386     -27.885    -147.356
  C      -89.556     -28.715    -147.780
  C      -90.298     -29.809    -147.972
  O      -96.052     -32.223    -151.587
  O      -95.601     -34.077    -149.828
  H      -89.749     -33.865    -146.061
  H      -95.376     -34.276    -148.903
  H      -86.652     -30.256    -147.386
  H      -89.962     -27.711    -147.771
  H      -91.368     -29.737    -148.136
  H      -90.010     -33.089    -148.378
  H      -91.624     -31.739    -146.132
  H      -93.084     -33.520    -146.210
  H      -92.855     -33.843    -149.057
  H      -94.865     -33.015    -147.866
  H      -94.068     -31.475    -147.537
  P      -91.822     -35.899    -145.670
  C      -94.170     -36.913    -146.133
  O      -93.302     -36.297    -145.207
  O      -90.940     -35.371    -144.585
  O      -91.238     -37.277    -146.245
  H      -90.717     -37.725    -145.554
  H      -95.201     -36.660    -145.870
  H      -94.051     -38.000    -146.071
  H      -93.972     -36.581    -147.155
  H      -98.402     -30.789    -148.471
  H      -98.014     -30.650    -150.169
  H      -96.868     -30.113    -148.965

 3  4  5  6  7  8  9  10  11  12  13  23  28  29  30  31  32 0
 6-311+G(2d,p)
 ****
 33  34 0
 6-311+G(2d,p)
 ****
 1  2  14  15  16  17  18  19  20  21  22  24  25  26  27 0
 3-21G
 ****
 35  36  37  38  39  40  41  42  43  44  45 0
 3-21G
 ****


