%nproc=1
%NoSave
%Mem=1900MB
#P OB98/GEN NMR

erre ene a

0 1
  C       14.384     273.320     316.778
  O       13.751     273.478     318.037
  P       13.410     274.980     318.496
  C       14.780     277.203     318.498
  O       14.795     275.784     318.463
  C       16.173     277.722     318.854
  O       17.146     277.244     317.906
  C       16.294     279.240     318.859
  O       15.808     279.775     320.078
  C       17.792     279.428     318.656
  O       18.502     279.264     319.898
  C       18.126     278.293     317.678
  N       20.929     280.076     313.868
  C       21.233     279.949     315.210
  N       22.480     280.311     315.579
  N       20.390     279.508     316.107
  C       19.176     279.198     315.594
  C       18.752     279.294     314.290
  C       19.708     279.734     313.301
  O       19.522     279.772     312.088
  N       17.442     278.908     314.157
  C       17.088     278.552     315.375
  N       18.110     278.686     316.281
  O       13.090     274.817     320.053
  O       12.296     275.638     317.743
  H       19.459     279.314     319.732
  H       12.124     274.782     320.205
  H       21.622     280.406     313.219
  H       16.117     278.170     315.649
  H       19.115     277.858     317.874
  H       18.036     280.427     318.287
  H       23.171     280.682     314.950
  H       15.751     279.668     318.006
  H       22.720     280.228     316.561
  H       16.441     277.315     319.839
  H       14.067     277.538     319.254
  H       14.465     277.584     317.519
  P       14.733     280.961     319.989
  C       14.671     283.279     318.820
  O       15.466     282.214     319.317
  O       14.543     281.399     321.519
  O       13.431     280.572     319.372
  H       13.614     281.651     321.673
  H       15.247     284.206     318.897
  H       13.743     283.389     319.387
  H       14.438     283.089     317.772
  H       14.555     272.280     316.593
  H       15.319     273.840     316.781
  H       13.756     273.721     316.010

 3  4  5  6  7  8  9  10  11  12  23  26  30  31 0
 6-311+G(2d,p)
 ****
 33  35  36  37  38 0
 6-311+G(2d,p)
 ****
 1  2  13  14  15  16  17  18  19  20  21  22  24  25 0
 3-21G
 ****
 27  28  29  32  34  39  40  41  42  43  44  45  46  47  48  49 0
 3-21G
 ****


