%nproc=1
%NoSave
%Mem=1900MB
#P OB98/GEN NMR

erre ene a

0 1
  C      -26.905      26.644     -34.190
  O      -27.562      26.737     -32.943
  H      -25.905      27.075     -34.088
  H      -27.453      27.214     -34.943
  H      -26.808      25.602     -34.503
  P      -28.999      26.051     -32.770
  C      -28.474      25.000     -30.473
  O      -29.279      25.921     -31.194
  C      -28.888      24.956     -28.999
  O      -28.441      26.176     -28.355
  C      -30.400      24.841     -28.787
  O      -30.652      24.004     -27.659
  C      -30.821      26.263     -28.477
  O      -32.013      26.317     -27.696
  C      -29.590      26.805     -27.753
  N      -30.979      31.177     -25.636
  C      -31.177      29.879     -25.211
  N      -31.863      29.717     -24.060
  N      -30.744      28.829     -25.859
  C      -30.054      29.141     -26.983
  C      -29.791      30.383     -27.510
  C      -30.295      31.535     -26.793
  O      -30.165      32.708     -27.130
  N      -29.077      30.287     -28.678
  C      -28.911      28.991     -28.856
  N      -29.496      28.252     -27.862
  O      -29.190      24.784     -33.543
  O      -30.033      27.179     -33.231
  H      -32.700      25.818     -28.190
  H      -30.397      26.981     -34.112
  H      -31.344      31.948     -25.106
  H      -28.384      28.536     -29.685
  H      -29.595      26.566     -26.683
  H      -30.999      26.809     -29.412
  H      -32.205      30.480     -23.497
  H      -30.910      24.440     -29.663
  H      -31.996      28.776     -23.709
  H      -28.358      24.127     -28.514
  H      -27.430      25.320     -30.553
  H      -28.573      24.005     -30.922
  P      -30.652      22.411     -27.856
  C      -30.497      21.875     -25.348
  O      -31.261      21.728     -26.536
  O      -29.366      21.825     -28.332
  O      -31.818      22.187     -28.935
  H      -31.573      21.437     -29.512
  H      -30.997      21.383     -24.540
  H      -30.388      22.915     -25.120
  H      -29.531      21.438     -25.489

 6  7  8  9  10  11  12  13  14  15  26  29  33  34 0
 6-311+G(2d,p)
 ****
 36  38  39  40  41 0
 6-311+G(2d,p)
 ****
 1  2  3  4  5  16  17  18  19  20  21  22  23  24  25 0
 3-21G
 ****
 27  28  30  31  32  35  37  42  43  44  45  46  47 0
 3-21G
 ****
 48  49 0
 3-21G
 ****


