%nproc=1
%NoSave
%Mem=1900MB
#P OB98/GEN NMR

erre ene a

0 1
  C     -235.174    -140.264    -288.381
  O     -235.015    -140.593    -286.999
  P     -235.086    -142.134    -286.572
  C     -236.488    -141.751    -284.432
  O     -235.249    -142.217    -284.967
  C     -236.257    -141.046    -283.083
  O     -235.660    -139.738    -283.347
  C     -237.528    -140.757    -282.275
  O     -237.986    -141.759    -281.361
  C     -237.089    -139.570    -281.435
  O     -236.376    -140.026    -280.275
  C     -236.137    -138.809    -282.352
  N     -236.299    -133.686    -282.611
  C     -235.552    -134.533    -281.869
  N     -235.575    -135.887    -281.858
  C     -236.463    -136.354    -282.742
  C     -237.285    -135.616    -283.579
  C     -237.189    -134.217    -283.491
  N     -237.949    -133.357    -284.251
  N     -238.080    -136.452    -284.354
  C     -237.750    -137.666    -283.964
  N     -236.767    -137.669    -283.017
  O     -234.035    -143.023    -287.150
  O     -236.545    -142.568    -287.082
  H     -235.606    -140.542    -280.601
  H     -236.502    -143.485    -287.417
  H     -234.853    -134.059    -281.182
  H     -238.194    -138.579    -284.355
  H     -235.260    -138.414    -281.824
  H     -237.942    -138.978    -281.063
  H     -238.358    -140.464    -282.939
  H     -235.551    -141.623    -282.484
  H     -237.162    -142.603    -284.284
  H     -237.846    -132.366    -284.097
  H     -238.658    -133.731    -284.863
  H     -236.952    -141.102    -285.178
  P     -239.518    -141.839    -280.909
  C     -238.862    -142.179    -278.406
  O     -239.523    -142.672    -279.531
  O     -240.460    -142.340    -281.945
  O     -239.816    -140.345    -280.412
  H     -239.338    -140.090    -279.605
  H     -239.154    -142.770    -277.526
  H     -239.135    -141.130    -278.212
  H     -237.774    -142.271    -278.538
  H     -235.102    -139.204    -288.506
  H     -236.132    -140.599    -288.719
  H     -234.406    -140.743    -288.952

 3  4  5  6  7  8  9  10  11  12  22  25  29  30  31  32 0
 6-311+G(2d,p)
 ****
 33  36  37 0
 6-311+G(2d,p)
 ****
 1  2  13  14  15  16  17  18  19  20  21  23  24  26 0
 3-21G
 ****
 27  28  34  35  38  39  40  41  42  43  44  45  46  47  48 0
 3-21G
 ****


