%nproc=1
%NoSave
%Mem=1900MB
#P OB98/GEN NMR

erre ene a

0 1
  C      729.702    -714.299    -675.541
  O      728.497    -714.770    -674.971
  H      729.733    -713.211    -675.449
  H      729.747    -714.565    -676.597
  H      730.565    -714.720    -675.015
  P      728.299    -716.360    -674.895
  C      727.895    -716.899    -672.378
  O      728.827    -716.809    -673.447
  C      728.620    -717.314    -671.098
  O      729.158    -718.647    -671.280
  C      729.786    -716.388    -670.733
  O      729.851    -716.260    -669.311
  C      730.998    -717.152    -671.234
  O      732.210    -716.795    -670.583
  C      730.566    -718.598    -670.966
  N      731.311    -719.565    -671.774
  C      732.631    -719.814    -671.418
  O      733.191    -719.342    -670.428
  N      733.323    -720.655    -672.253
  C      732.842    -721.233    -673.390
  O      733.517    -721.958    -674.106
  C      731.444    -720.924    -673.721
  C      730.753    -720.114    -672.911
  O      729.426    -716.920    -675.885
  O      726.936    -716.857    -675.239
  H      729.072    -717.006    -676.790
  H      732.089    -716.940    -669.623
  H      734.281    -720.849    -672.003
  H      731.031    -721.353    -674.622
  H      729.728    -719.853    -673.135
  H      730.677    -718.838    -669.904
  H      731.132    -716.981    -672.309
  H      729.708    -715.403    -671.193
  H      727.888    -717.369    -670.281
  H      727.139    -717.653    -672.629
  H      727.408    -715.931    -672.246
  P      730.274    -714.823    -668.723
  C      727.866    -714.009    -668.102
  O      729.000    -713.867    -668.940
  O      731.332    -714.333    -669.813
  O      730.786    -714.898    -667.323
  H      731.099    -714.591    -670.721
  H      727.120    -713.297    -668.387
  H      728.151    -713.839    -667.085
  H      727.471    -714.998    -668.201

 6  7  8  9  10  11  12  13  14  15  16  27  31  32  33  34  35 0
 6-311+G(2d,p)
 ****
 36  37 0
 6-311+G(2d,p)
 ****
 1  2  3  4  5  17  18  19  20  21  22  23  24  25 0
 3-21G
 ****
 26  28  29  30  38  39  40  41  42  43  44  45 0
 3-21G
 ****


