%nproc=1
%NoSave
%Mem=1900MB
#P OB98/GEN NMR

erre ene a

0 1
  C      201.975     471.665    -544.444
  O      202.246     472.973    -544.918
  P      202.438     473.168    -546.499
  C      204.003     472.162    -548.322
  O      203.702     472.284    -546.935
  C      205.528     472.117    -548.505
  O      206.113     471.119    -547.643
  C      205.957     471.735    -549.919
  O      205.853     472.837    -550.807
  C      207.388     471.272    -549.693
  O      208.293     472.389    -549.657
  C      207.293     470.608    -548.305
  N      207.284     469.147    -548.377
  C      208.059     468.489    -547.434
  O      208.736     469.080    -546.592
  N      208.064     467.122    -547.510
  C      207.427     466.374    -548.457
  O      207.519     465.149    -548.510
  C      206.646     467.124    -549.451
  C      206.615     468.456    -549.371
  O      202.955     474.673    -546.640
  O      201.203     472.922    -547.307
  H      208.167     472.873    -550.498
  H      202.594     475.076    -547.452
  H      208.598     466.625    -546.822
  H      206.127     466.561    -550.212
  H      206.055     469.035    -550.097
  H      208.138     470.911    -547.681
  H      207.735     470.608    -550.485
  H      205.354     470.883    -550.276
  H      205.942     473.094    -548.232
  H      203.595     473.014    -548.860
  H      203.542     471.249    -548.707
  P      205.275     472.538    -552.277
  C      205.942     470.806    -554.121
  O      206.231     471.386    -552.868
  O      205.696     473.873    -553.046
  O      203.807     472.256    -552.283
  H      206.538     474.242    -552.706
  H      205.523     471.543    -554.820
  H      205.231     469.992    -553.989
  H      206.864     470.409    -554.549
  H      201.872     471.686    -543.379
  H      202.781     471.015    -544.711
  H      201.067     471.307    -544.884

 3  4  5  6  7  8  9  10  11  12  13  23  28  29  30  31  32 0
 6-311+G(2d,p)
 ****
 33  34 0
 6-311+G(2d,p)
 ****
 1  2  14  15  16  17  18  19  20  21  22  24  25  26 0
 3-21G
 ****
 27  35  36  37  38  39  40  41  42  43  44  45 0
 3-21G
 ****


