%nproc=1
%NoSave
%Mem=1900MB
#P OB98/GEN NMR

erre ene a

0 1
  C      383.290    -470.208     220.423
  O      384.265    -471.132     220.866
  H      382.319    -470.494     220.839
  H      383.224    -470.240     219.332
  H      383.534    -469.199     220.756
  P      385.798    -470.823     220.509
  C      387.983    -472.068     221.172
  O      386.622    -472.176     220.786
  C      388.303    -473.076     222.280
  O      387.649    -472.644     223.510
  C      387.837    -474.498     221.970
  O      388.819    -475.416     222.458
  C      386.556    -474.640     222.783
  O      386.257    -476.000     223.106
  C      386.858    -473.740     223.990
  N      385.627    -473.275     224.628
  C      385.307    -473.851     225.872
  O      386.049    -474.703     226.368
  N      384.143    -473.479     226.488
  C      383.315    -472.687     225.887
  N      382.164    -472.378     226.535
  C      383.577    -472.111     224.542
  C      384.745    -472.440     223.986
  O      386.270    -469.865     221.700
  O      386.035    -470.221     219.164
  H      385.992    -476.460     222.285
  H      386.943    -469.226     221.399
  H      382.845    -471.473     224.068
  H      385.015    -472.072     223.005
  H      387.463    -474.290     224.732
  H      385.713    -474.235     222.209
  H      387.666    -474.676     220.906
  H      389.390    -473.045     222.467
  H      382.006    -472.805     227.446
  H      388.160    -471.052     221.549
  H      381.419    -471.807     226.143
  H      388.622    -472.242     220.298
  P      389.759    -476.108     221.370
  C      392.283    -476.752     221.297
  O      391.116    -476.588     222.088
  O      390.232    -474.885     220.453
  O      389.068    -477.179     220.561
  H      389.787    -474.928     219.581
  H      393.093    -477.073     221.918
  H      392.535    -475.820     220.835
  H      392.101    -477.487     220.541

 6  7  8  9  10  11  12  13  14  15  16  26  30  31  32  33  35 0
 6-311+G(2d,p)
 ****
 37  38 0
 6-311+G(2d,p)
 ****
 1  2  3  4  5  17  18  19  20  21  22  23  24  25 0
 3-21G
 ****
 27  28  29  34  36  39  40  41  42  43  44  45  46 0
 3-21G
 ****


