%nproc=1
%NoSave
%Mem=1900MB
#P OB98/GEN NMR

erre ene a

0 1
  C      -74.553      74.746      61.859
  O      -75.604      75.566      61.388
  P      -76.332      76.615      62.351
  C      -78.493      75.685      61.334
  O      -77.820      76.846      61.803
  C      -79.025      75.885      59.915
  O      -79.657      74.659      59.461
  C      -80.052      77.019      59.784
  O      -79.808      77.668      58.531
  C      -81.376      76.280      59.754
  O      -82.410      77.046      59.150
  C      -80.977      75.009      58.998
  N      -81.919      73.921      59.203
  C      -83.207      74.094      58.691
  O      -83.543      75.179      58.214
  N      -84.082      73.037      58.748
  C      -83.762      71.978      59.426
  N      -84.628      70.928      59.400
  C      -82.503      71.864      60.191
  C      -81.619      72.840      60.002
  O      -75.566      77.870      62.613
  O      -76.572      75.800      63.711
  H      -76.202      76.309      64.459
  H      -83.262      76.572      59.258
  H      -82.336      71.018      60.841
  H      -80.654      72.835      60.497
  H      -80.898      75.210      57.920
  H      -81.686      76.038      60.777
  H      -79.978      77.753      60.592
  H      -78.170      76.073      59.254
  H      -85.461      71.027      58.833
  H      -79.332      75.484      62.004
  H      -84.333      69.977      59.619
  H      -77.818      74.822      61.375
  P      -79.870      79.273      58.479
  C      -82.028      79.501      57.053
  O      -80.631      79.694      57.131
  O      -78.345      79.643      58.129
  O      -80.284      79.968      59.736
  H      -78.156      80.544      58.451
  H      -82.362      79.777      56.050
  H      -82.541      80.139      57.779
  H      -82.284      78.453      57.233
  H      -74.205      74.120      61.064
  H      -74.909      74.137      62.663
  H      -73.749      75.361      62.206

 3  4  5  6  7  8  9  10  11  12  13  24  27  28  29  30  32 0
 6-311+G(2d,p)
 ****
 34  35 0
 6-311+G(2d,p)
 ****
 1  2  14  15  16  17  18  19  20  21  22  23  25  26 0
 3-21G
 ****
 31  33  36  37  38  39  40  41  42  43  44  45  46 0
 3-21G
 ****


