%nproc=1
%NoSave
%Mem=1900MB
#P OB98/GEN NMR

erre ene a

0 1
  C     -367.331    -197.278    -166.424
  O     -367.278    -195.928    -166.831
  P     -365.928    -195.076    -166.711
  C     -365.950    -195.199    -169.288
  O     -365.149    -195.245    -168.109
  C     -365.077    -194.904    -170.513
  O     -365.889    -195.069    -171.718
  C     -364.512    -193.465    -170.515
  O     -363.096    -193.385    -170.687
  C     -365.347    -192.784    -171.589
  O     -364.747    -191.619    -172.122
  C     -365.603    -193.934    -172.563
  N     -366.688    -193.652    -173.496
  C     -366.341    -193.099    -174.727
  O     -365.192    -192.859    -175.079
  N     -367.382    -192.775    -175.552
  C     -368.710    -192.826    -175.234
  O     -369.582    -192.423    -175.985
  C     -369.012    -193.379    -173.903
  C     -368.015    -193.781    -173.116
  O     -365.094    -195.359    -165.510
  O     -366.447    -193.561    -166.805
  H     -364.323    -191.136    -171.384
  H     -366.921    -193.342    -167.624
  H     -367.148    -192.372    -176.450
  H     -370.053    -193.424    -173.617
  H     -368.208    -194.190    -172.129
  H     -364.708    -194.180    -173.143
  H     -366.291    -192.476    -171.129
  H     -364.690    -192.975    -169.552
  H     -364.269    -195.642    -170.538
  H     -366.694    -194.407    -169.178
  H     -366.490    -196.147    -169.407
  P     -362.185    -192.153    -170.233
  C     -362.308    -193.008    -167.775
  O     -362.418    -191.913    -168.664
  O     -362.296    -190.931    -171.078
  O     -360.698    -192.750    -170.293
  H     -360.066    -192.034    -170.483
  H     -362.955    -192.826    -166.916
  H     -361.277    -193.094    -167.434
  H     -362.616    -193.948    -168.252
  H     -368.317    -197.661    -166.586
  H     -367.088    -197.347    -165.384
  H     -366.628    -197.850    -166.993

 3  4  5  6  7  8  9  10  11  12  13  23  28  29  30  31  32 0
 6-311+G(2d,p)
 ****
 33  34 0
 6-311+G(2d,p)
 ****
 1  2  14  15  16  17  18  19  20  21  22  24  25  26  27 0
 3-21G
 ****
 35  36  37  38  39  40  41  42  43  44  45 0
 3-21G
 ****


