%nproc=1
%NoSave
%Mem=1900MB
#P OB98/GEN NMR

erre ene a

0 1
  C      446.287     109.136    -339.971
  O      445.268     109.689    -340.779
  H      447.074     108.744    -340.621
  H      445.894     108.313    -339.368
  H      446.721     109.900    -339.319
  P      443.992     110.329    -340.053
  C      444.816     112.672    -340.771
  O      443.739     111.743    -340.773
  C      444.669     113.645    -341.930
  O      444.791     112.956    -343.187
  C      443.320     114.370    -341.964
  O      443.321     115.458    -341.060
  C      443.276     114.799    -343.423
  O      444.131     115.937    -343.623
  C      443.861     113.563    -344.127
  N      439.359     112.776    -346.322
  C      440.017     113.957    -346.043
  N      439.356     115.098    -346.359
  N      441.197     114.020    -345.489
  C      441.700     112.807    -345.167
  C      441.142     111.572    -345.373
  C      439.855     111.511    -346.044
  O      439.246     110.487    -346.319
  N      441.919     110.572    -344.852
  C      442.970     111.200    -344.367
  N      442.877     112.562    -344.518
  O      444.050     110.414    -338.558
  O      442.767     109.435    -340.559
  H      444.108     116.145    -344.575
  H      442.590     108.700    -339.941
  H      438.439     112.792    -346.732
  H      443.818     110.719    -343.891
  H      444.427     113.828    -345.028
  H      442.278     115.079    -343.757
  H      438.356     115.108    -346.517
  H      442.484     113.683    -341.779
  H      439.801     115.975    -346.122
  H      445.496     114.363    -341.878
  H      445.748     112.098    -340.864
  H      444.840     113.225    -339.826
  P      441.943     116.105    -340.538
  C      441.628     114.612    -338.452
  O      441.967     115.907    -338.950
  O      440.716     115.592    -341.212
  O      442.153     117.679    -340.696
  H      441.894     118.028    -341.584
  H      441.683     114.615    -337.383
  H      442.314     113.889    -338.842
  H      440.634     114.361    -338.758

 6  7  8  9  10  11  12  13  14  15  26  29  33  34 0
 6-311+G(2d,p)
 ****
 36  38  39  40  41 0
 6-311+G(2d,p)
 ****
 1  2  3  4  5  16  17  18  19  20  21  22  23  24  25 0
 3-21G
 ****
 27  28  30  31  32  35  37  42  43  44  45  46  47 0
 3-21G
 ****
 48  49 0
 3-21G
 ****


