%nproc=1
%NoSave
%Mem=1900MB
#P OB98/GEN NMR

erre ene a

0 1
  C      745.296    -623.030     910.413
  O      744.241    -622.807     911.323
  H      744.978    -623.766     909.666
  H      746.168    -623.431     910.940
  H      745.571    -622.104     909.897
  P      744.412    -621.594     912.359
  C      745.016    -623.470     914.047
  O      745.286    -622.161     913.584
  C      746.192    -623.985     914.885
  O      747.337    -624.183     914.010
  C      746.637    -623.009     915.996
  O      747.044    -623.784     917.125
  C      747.846    -622.320     915.385
  O      748.737    -621.777     916.348
  C      748.458    -623.476     914.582
  N      749.375    -623.018     913.540
  C      750.511    -622.348     913.947
  O      750.855    -622.176     915.131
  N      751.302    -621.837     912.943
  C      751.044    -621.916     911.603
  O      751.765    -621.425     910.750
  C      749.807    -622.628     911.226
  C      749.039    -623.136     912.206
  O      742.941    -621.452     912.982
  O      744.913    -620.312     911.776
  H      742.404    -620.829     912.454
  H      748.316    -620.975     916.719
  H      752.134    -621.354     913.229
  H      749.561    -622.697     910.181
  H      748.110    -623.652     911.961
  H      748.980    -624.173     915.252
  H      747.523    -621.517     914.720
  H      745.858    -622.290     916.287
  H      745.929    -624.957     915.305
  H      744.876    -624.148     913.178
  H      744.092    -623.470     914.641
  P      746.154    -623.657     918.456
  C      747.868    -622.188     919.794
  O      746.594    -622.292     919.157
  O      746.813    -624.811     919.378
  O      744.687    -623.837     918.193
  H      747.775    -624.883     919.244
  H      747.983    -621.206     920.203
  H      748.641    -622.368     919.077
  H      747.934    -622.912     920.579

 6  7  8  9  10  11  12  13  14  15  16  27  31  32  33  34  35 0
 6-311+G(2d,p)
 ****
 36  37 0
 6-311+G(2d,p)
 ****
 1  2  3  4  5  17  18  19  20  21  22  23  24  25 0
 3-21G
 ****
 26  28  29  30  38  39  40  41  42  43  44  45 0
 3-21G
 ****


