%nproc=1
%NoSave
%Mem=1900MB
#P OB98/GEN NMR

erre ene a

0 1
  C     -478.953     -82.892     383.443
  O     -477.657     -82.530     383.002
  H     -479.378     -83.612     382.736
  H     -479.611     -82.019     383.480
  H     -478.901     -83.356     384.431
  P     -476.886     -81.363     383.786
  C     -475.965     -80.660     381.471
  O     -476.577     -80.240     382.686
  C     -476.747     -80.125     380.275
  O     -478.141     -80.476     380.392
  C     -476.713     -78.605     380.164
  O     -475.467     -78.166     379.665
  C     -477.910     -78.354     379.269
  O     -477.587     -78.592     377.892
  C     -478.912     -79.412     379.791
  N     -479.871     -78.860     380.744
  C     -481.223     -79.080     380.450
  O     -481.548     -79.711     379.445
  N     -482.165     -78.551     381.298
  C     -481.801     -77.883     382.345
  N     -482.785     -77.390     383.143
  C     -480.389     -77.644     382.699
  C     -479.487     -78.149     381.860
  O     -475.703     -81.769     384.606
  O     -478.033     -80.690     384.678
  H     -476.932     -77.907     377.650
  H     -478.094     -81.130     385.548
  H     -480.127     -77.086     383.585
  H     -478.424     -78.017     382.042
  H     -479.470     -79.855     378.960
  H     -478.264     -77.331     379.355
  H     -476.919     -78.154     381.144
  H     -476.352     -80.594     379.366
  H     -483.743     -77.573     382.856
  H     -475.969     -81.757     381.466
  H     -482.619     -76.935     384.028
  H     -474.924     -80.321     381.423
  P     -474.412     -77.434     380.628
  C     -474.380     -75.555     378.860
  O     -474.491     -75.877     380.246
  O     -473.039     -78.029     380.630
  O     -475.127     -77.490     382.060
  H     -475.095     -78.398     382.445
  H     -474.447     -74.495     378.734
  H     -475.172     -76.029     378.319
  H     -473.438     -75.900     378.488

 6  7  8  9  10  11  12  13  14  15  16  26  30  31  32  33  35 0
 6-311+G(2d,p)
 ****
 37  38 0
 6-311+G(2d,p)
 ****
 1  2  3  4  5  17  18  19  20  21  22  23  24  25 0
 3-21G
 ****
 27  28  29  34  36  39  40  41  42  43  44  45  46 0
 3-21G
 ****


