%nproc=1
%NoSave
%Mem=1900MB
#P OB98/GEN NMR

erre ene a

0 1
  C       10.179      96.811      -7.736
  O        9.417      96.037      -8.637
  H       10.391      96.208      -6.851
  H        9.608      97.693      -7.434
  H       11.126      97.122      -8.184
  P        9.271      96.536     -10.150
  C        6.721      96.927     -10.201
  O        8.008      97.524     -10.204
  C        5.635      97.951     -10.553
  O        5.581      98.972      -9.528
  C        5.975      98.658     -11.867
  O        4.809      99.090     -12.562
  C        6.758      99.876     -11.402
  O        6.768     100.932     -12.358
  C        6.026     100.213     -10.104
  N        7.961     104.699      -8.661
  C        7.256     104.379      -9.804
  N        7.060     105.381     -10.689
  N        6.800     103.182     -10.062
  C        7.136     102.263      -9.125
  C        7.851     102.454      -7.964
  C        8.315     103.792      -7.671
  O        8.961     104.130      -6.682
  N        8.007     101.279      -7.273
  C        7.396     100.378      -8.014
  N        6.839     100.929      -9.143
  O        8.732      95.242     -10.927
  O       10.520      97.072     -10.780
  H        7.242     101.685     -11.959
  H        8.968      95.290     -11.870
  H        8.276     105.641      -8.504
  H        7.323      99.324      -7.780
  H        5.139     100.827     -10.308
  H        7.797      99.575     -11.241
  H        7.539     106.266     -10.617
  H        6.570      98.029     -12.530
  H        6.813     105.106     -11.643
  H        4.652      97.469     -10.575
  H        6.549      96.532      -9.195
  H        6.693      96.083     -10.895
  P        4.220      98.123     -13.695
  C        5.103      99.808     -15.501
  O        4.969      98.467     -15.071
  O        2.731      98.661     -13.912
  O        4.248      96.678     -13.325
  H        2.089      98.051     -13.504
  H        5.627      99.833     -16.433
  H        5.650     100.364     -14.769
  H        4.133     100.241     -15.626

 6  7  8  9  10  11  12  13  14  15  26  29  33  34 0
 6-311+G(2d,p)
 ****
 36  38  39  40  41 0
 6-311+G(2d,p)
 ****
 1  2  3  4  5  16  17  18  19  20  21  22  23  24  25 0
 3-21G
 ****
 27  28  30  31  32  35  37  42  43  44  45  46  47 0
 3-21G
 ****
 48  49 0
 3-21G
 ****


