%nproc=1
%NoSave
%Mem=1900MB
#P OB98/GEN NMR

erre ene a

0 1
  C       80.145     -59.028      67.313
  O       81.456     -58.774      67.772
  H       79.938     -58.372      66.464
  H       79.422     -58.814      68.104
  H       80.041     -60.066      66.985
  P       82.080     -59.730      68.896
  C       83.110     -62.097      68.912
  O       82.744     -60.971      68.130
  C       84.257     -62.870      68.252
  O       83.786     -63.397      66.973
  C       85.506     -62.016      67.954
  O       86.640     -62.891      68.030
  C       85.228     -61.591      66.524
  O       86.349     -61.014      65.904
  C       84.705     -62.921      65.965
  N       84.047     -62.839      64.667
  C       84.799     -63.156      63.540
  O       85.977     -63.505      63.562
  N       84.142     -63.056      62.341
  C       82.839     -62.694      62.166
  O       82.297     -62.653      61.068
  C       82.100     -62.364      63.392
  C       82.724     -62.455      64.568
  O       81.168     -60.094      70.018
  O       83.357     -58.913      69.418
  H       83.146     -58.486      70.269
  H       86.082     -60.656      65.029
  H       84.670     -63.286      61.515
  H       81.067     -62.061      63.288
  H       82.201     -62.227      65.491
  H       85.521     -63.648      65.908
  H       84.449     -60.826      66.506
  H       85.636     -61.188      68.657
  H       84.509     -63.734      68.878
  H       82.233     -62.747      69.006
  H       83.410     -61.759      69.910
  P       87.810     -62.731      69.117
  C       88.381     -63.692      71.453
  O       87.496     -63.727      70.338
  O       88.052     -61.320      69.542
  O       89.112     -63.360      68.433
  H       89.911     -62.950      68.814
  H       88.057     -64.400      72.187
  H       88.380     -62.710      71.879
  H       89.371     -63.940      71.131

 6  7  8  9  10  11  12  13  14  15  16  27  31  32  33  34  35 0
 6-311+G(2d,p)
 ****
 36  37 0
 6-311+G(2d,p)
 ****
 1  2  3  4  5  17  18  19  20  21  22  23  24  25 0
 3-21G
 ****
 26  28  29  30  38  39  40  41  42  43  44  45 0
 3-21G
 ****


