%nproc=1
%NoSave
%Mem=1900MB
#P OB98/GEN NMR

erre ene a

0 1
  C     -119.712     -13.836     -14.431
  O     -119.309     -12.525     -14.098
  P     -120.230     -11.505     -13.284
  C     -118.547      -9.648     -13.972
  O     -119.911     -10.017     -13.803
  C     -118.375      -8.321     -14.726
  O     -118.927      -8.446     -16.052
  C     -119.168      -7.212     -14.029
  O     -118.615      -6.526     -12.924
  C     -119.668      -6.316     -15.156
  O     -118.850      -5.159     -15.341
  C     -119.600      -7.222     -16.387
  N     -123.730      -5.453     -18.734
  C     -122.491      -4.859     -18.588
  N     -122.414      -3.559     -18.948
  N     -121.444      -5.479     -18.111
  C     -121.703      -6.744     -17.704
  C     -122.883      -7.443     -17.811
  C     -124.022      -6.761     -18.378
  O     -125.157      -7.225     -18.448
  N     -122.797      -8.681     -17.227
  C     -121.578      -8.718     -16.729
  N     -120.891      -7.550     -16.958
  O     -120.354     -11.738     -11.813
  O     -121.676     -11.791     -13.942
  H     -118.873      -4.642     -14.516
  H     -122.344     -11.679     -13.239
  H     -124.523      -4.900     -19.036
  H     -121.160      -9.545     -16.168
  H     -119.010      -6.750     -17.182
  H     -120.678      -5.948     -14.939
  H     -123.231      -3.014     -19.180
  H     -120.074      -7.681     -13.622
  H     -121.575      -3.048     -18.697
  H     -117.317      -8.084     -14.866
  H     -118.051     -10.464     -14.507
  H     -118.068      -9.568     -12.993
  P     -119.228      -6.451     -11.449
  C     -117.222      -5.013     -10.778
  O     -118.630      -5.158     -10.719
  O     -118.526      -7.659     -10.666
  O     -120.715      -6.580     -11.378
  H     -119.071      -7.914      -9.899
  H     -116.905      -4.298     -10.015
  H     -116.935      -4.632     -11.763
  H     -116.722      -5.969     -10.600
  H     -118.929     -14.323     -14.974
  H     -120.594     -13.795     -15.036
  H     -119.919     -14.384     -13.535

 3  4  5  6  7  8  9  10  11  12  23  26  30  31 0
 6-311+G(2d,p)
 ****
 33  35  36  37  38 0
 6-311+G(2d,p)
 ****
 1  2  13  14  15  16  17  18  19  20  21  22  24  25 0
 3-21G
 ****
 27  28  29  32  34  39  40  41  42  43  44  45  46  47  48  49 0
 3-21G
 ****


