%nproc=1
%NoSave
%Mem=1900MB
#P OB98/GEN NMR

erre ene a

0 1
  C      316.036    -425.799    -936.979
  O      315.352    -424.566    -936.778
  P      315.592    -423.406    -937.843
  C      313.029    -423.064    -937.655
  O      314.312    -422.438    -937.766
  C      311.922    -422.036    -937.789
  O      312.189    -421.179    -938.909
  C      310.530    -422.613    -938.027
  O      309.923    -423.056    -936.828
  C      309.798    -421.397    -938.588
  O      309.353    -420.558    -937.514
  C      310.909    -420.696    -939.422
  N      309.236    -419.034    -943.891
  C      309.110    -418.469    -942.644
  N      308.488    -417.265    -942.572
  N      309.569    -419.018    -941.555
  C      310.202    -420.191    -941.775
  C      310.379    -420.872    -942.960
  C      309.820    -420.276    -944.163
  O      309.834    -420.753    -945.286
  N      311.081    -422.036    -942.801
  C      311.372    -422.050    -941.519
  N      310.839    -420.970    -940.841
  O      315.415    -424.151    -939.276
  O      316.931    -422.721    -937.756
  H      308.767    -421.097    -936.951
  H      315.923    -423.674    -939.958
  H      308.865    -418.549    -944.707
  H      311.967    -422.808    -941.020
  H      310.887    -419.609    -939.258
  H      308.907    -421.671    -939.177
  H      308.227    -416.727    -943.397
  H      310.560    -423.395    -938.781
  H      308.432    -416.815    -941.671
  H      311.926    -421.410    -936.873
  H      312.941    -423.559    -936.668
  H      312.945    -423.836    -938.430
  P      309.219    -424.503    -936.883
  C      309.449    -424.551    -934.284
  O      308.597    -424.724    -935.409
  O      310.446    -425.521    -936.961
  O      308.262    -424.691    -938.031
  H      310.169    -426.356    -937.385
  H      310.156    -423.733    -934.448
  H      309.986    -425.478    -934.088
  H      308.836    -424.308    -933.412
  H      315.782    -426.480    -936.194
  H      317.092    -425.626    -936.974
  H      315.748    -426.217    -937.921

 3  4  5  6  7  8  9  10  11  12  23  26  30  31  33  0
 6-311+G(2d,p)
 ****
 35  36  37  38 0
 6-311+G(2d,p)
 ****
 1  2  13  14  15  16  17  18  19  20  21  22  24  25  27  28  29 0
 3-21G
 ****
 32  34  39  40  41  42  43  44  45  46  47  48  49 0
 3-21G
 ****


