%nproc=1
%NoSave
%Mem=1900MB
#P OB98/GEN NMR

erre ene a

0 1
  C     -221.397    -418.676     331.092
  O     -220.258    -418.715     330.220
  P     -220.368    -418.631     328.624
  C     -218.793    -416.573     328.464
  O     -220.081    -417.108     328.182
  C     -218.725    -415.091     328.096
  O     -219.991    -414.445     328.377
  C     -217.709    -414.274     328.881
  O     -216.376    -414.533     328.479
  C     -218.186    -412.845     328.593
  O     -217.667    -412.366     327.351
  C     -219.712    -413.028     328.492
  N     -220.436    -412.441     329.609
  C     -220.654    -411.064     329.551
  O     -220.176    -410.385     328.643
  N     -221.396    -410.476     330.556
  C     -221.798    -411.191     331.563
  N     -222.533    -410.557     332.510
  C     -221.466    -412.615     331.723
  C     -220.795    -413.174     330.721
  O     -221.635    -419.177     328.068
  O     -219.095    -419.428     328.067
  H     -219.289    -419.774     327.174
  H     -217.979    -412.966     326.652
  H     -221.775    -413.160     332.604
  H     -220.518    -414.225     330.748
  H     -220.083    -412.588     327.552
  H     -217.872    -412.146     329.373
  H     -217.823    -414.493     329.953
  H     -218.526    -415.011     327.017
  H     -222.749    -409.579     332.374
  H     -218.054    -417.120     327.863
  H     -222.910    -411.020     333.329
  H     -218.558    -416.732     329.521
  P     -215.647    -415.799     329.144
  C     -215.033    -416.872     326.858
  O     -215.716    -417.012     328.094
  O     -216.656    -416.251     330.305
  O     -214.288    -415.515     329.689
  H     -216.150    -416.522     331.095
  H     -214.757    -417.872     326.504
  H     -214.123    -416.278     326.966
  H     -215.690    -416.402     326.124
  H     -221.071    -418.748     332.108
  H     -222.046    -419.496     330.867
  H     -221.923    -417.755     330.950

 3  4  5  6  7  8  9  10  11  12  13  24  27  28  29  30  32 0
 6-311+G(2d,p)
 ****
 34  35 0
 6-311+G(2d,p)
 ****
 1  2  14  15  16  17  18  19  20  21  22  23  25  26 0
 3-21G
 ****
 31  33  36  37  38  39  40  41  42  43  44  45  46 0
 3-21G
 ****


