%nproc=1
%NoSave
%Mem=1900MB
#P OB98/GEN NMR

erre ene a

0 1
  C     -318.387    -112.879     281.588
  O     -319.449    -113.052     282.507
  H     -318.805    -112.659     280.601
  H     -317.785    -113.790     281.511
  H     -317.752    -112.045     281.898
  P     -319.100    -113.541     283.991
  C     -320.583    -115.622     283.564
  O     -319.313    -115.131     283.981
  C     -320.407    -116.843     282.669
  O     -319.445    -116.568     281.629
  C     -319.872    -118.063     283.411
  O     -320.887    -118.662     284.189
  C     -319.343    -118.894     282.259
  O     -320.403    -119.599     281.600
  C     -318.751    -117.798     281.338
  N     -317.310    -117.641     281.506
  C     -316.503    -118.387     280.637
  O     -317.014    -119.117     279.788
  N     -315.140    -118.297     280.779
  C     -314.626    -117.528     281.683
  N     -313.272    -117.483     281.766
  C     -315.439    -116.712     282.606
  C     -316.758    -116.822     282.469
  O     -319.787    -112.834     285.115
  O     -317.507    -113.391     284.071
  H     -320.844    -120.127     282.293
  H     -317.263    -112.500     284.388
  H     -314.970    -116.080     283.345
  H     -317.431    -116.260     283.109
  H     -318.950    -118.035     280.286
  H     -318.619    -119.628     282.599
  H     -319.022    -117.773     284.042
  H     -321.370    -117.066     282.192
  H     -312.750    -118.066     281.116
  H     -321.079    -114.814     283.009
  H     -312.760    -116.855     282.369
  H     -321.204    -115.876     284.430
  P     -320.777    -118.700     285.792
  C     -320.632    -121.275     285.738
  O     -319.996    -120.061     286.134
  O     -322.066    -118.493     286.520
  O     -319.684    -117.570     286.107
  H     -320.058    -116.664     285.992
  H     -320.019    -122.106     286.018
  H     -320.770    -121.276     284.677
  H     -321.583    -121.354     286.222

 6  7  8  9  10  11  12  13  14  15  16  26  30  31  32  33  35 0
 6-311+G(2d,p)
 ****
 37  38 0
 6-311+G(2d,p)
 ****
 1  2  3  4  5  17  18  19  20  21  22  23  24  25 0
 3-21G
 ****
 27  28  29  34  36  39  40  41  42  43  44  45  46 0
 3-21G
 ****


