%nproc=1
%NoSave
%Mem=1900MB
#P OB98/GEN NMR

erre ene a

0 1
  C     -317.334      61.960      19.549
  O     -317.891      63.048      18.838
  H     -317.894      61.043      19.341
  H     -316.297      61.825      19.227
  H     -317.345      62.168      20.623
  P     -319.449      63.343      19.096
  C     -321.659      62.087      18.580
  O     -320.261      62.177      18.347
  C     -322.271      60.994      17.715
  O     -322.135      61.331      16.320
  C     -321.620      59.623      17.863
  O     -322.062      58.951      19.034
  C     -322.120      58.937      16.599
  O     -323.464      58.466      16.803
  C     -322.113      60.083      15.577
  N     -320.494      59.935      10.704
  C     -321.735      59.929      11.241
  N     -322.088      59.956      12.544
  C     -321.004      60.016      13.332
  C     -319.678      60.032      12.927
  C     -319.436      59.983      11.545
  N     -318.163      59.972      11.007
  N     -318.836      60.111      14.018
  C     -319.637      60.142      15.065
  N     -320.958      60.081      14.699
  O     -319.738      64.635      18.187
  O     -319.831      63.578      20.518
  H     -323.994      59.242      17.067
  H     -320.387      65.202      18.645
  H     -322.555      59.893      10.529
  H     -319.312      60.214      16.093
  H     -323.014      60.069      14.954
  H     -321.510      58.076      16.310
  H     -320.529      59.698      17.829
  H     -323.344      60.945      17.943
  H     -322.130      63.047      18.336
  H     -318.054      60.137      10.019
  H     -317.377      60.017      11.647
  H     -321.826      61.874      19.642
  P     -320.939      58.290      19.976
  C     -319.642      56.042      19.953
  O     -320.702      56.813      19.397
  O     -321.725      58.028      21.347
  O     -319.719      59.122      20.187
  H     -321.093      58.012      22.093
  H     -319.605      55.087      19.472
  H     -319.811      55.907      21.001
  H     -318.713      56.552      19.804

 6  7  8  9  10  11  12  13  14  15  25  28  32  33  34  35 0
 6-311+G(2d,p)
 ****
 36  39  40 0
 6-311+G(2d,p)
 ****
 1  2  3  4  5  16  17  18  19  20  21  22  23  24 0
 3-21G
 ****
 26  27  29  30  31  37  38  41  42  43  44  45  46  47  48 0
 3-21G
 ****


