%nproc=1
%NoSave
%Mem=1900MB
#P OB98/GEN NMR

erre ene a

0 1
  C     -909.195     635.006    -144.938
  O     -908.798     636.218    -144.326
  H     -910.199     635.132    -145.355
  H     -909.226     634.200    -144.201
  H     -908.509     634.747    -145.745
  P     -907.394     636.214    -143.558
  C     -908.601     636.706    -141.302
  O     -907.701     635.867    -142.027
  C     -908.626     636.290    -139.835
  O     -909.205     634.971    -139.710
  C     -907.244     636.188    -139.198
  O     -906.713     637.450    -138.838
  C     -907.547     635.322    -137.985
  O     -908.029     636.099    -136.885
  C     -908.630     634.367    -138.523
  N     -908.105     633.035    -138.790
  C     -908.750     631.987    -138.133
  O     -909.723     632.154    -137.395
  N     -908.243     630.740    -138.343
  C     -907.130     630.450    -139.082
  O     -906.682     629.314    -139.189
  C     -906.468     631.596    -139.732
  C     -906.980     632.815    -139.552
  O     -906.995     637.766    -143.522
  O     -906.327     635.376    -144.189
  H     -906.275     637.936    -144.157
  H     -908.529     635.481    -136.313
  H     -908.705     629.969    -137.892
  H     -905.583     631.393    -140.326
  H     -906.501     633.676    -140.012
  H     -909.450     634.277    -137.801
  H     -906.652     634.791    -137.650
  H     -906.554     635.646    -139.862
  H     -909.251     636.997    -139.286
  H     -909.605     636.605    -141.718
  H     -908.275     637.742    -141.415
  P     -905.161     637.520    -138.406
  C     -905.940     638.594    -136.130
  O     -905.166     637.605    -136.802
  O     -904.784     638.989    -138.891
  O     -904.343     636.411    -138.994
  H     -905.554     639.575    -138.911
  H     -905.813     638.489    -135.073
  H     -906.973     638.469    -136.379
  H     -905.616     639.568    -136.433

 6  7  8  9  10  11  12  13  14  15  16  27  31  32  33  34  35 0
 6-311+G(2d,p)
 ****
 36  37 0
 6-311+G(2d,p)
 ****
 1  2  3  4  5  17  18  19  20  21  22  23  24  25 0
 3-21G
 ****
 26  28  29  30  38  39  40  41  42  43  44  45 0
 3-21G
 ****


