%nproc=1
%NoSave
%Mem=1900MB
#P OB98/GEN NMR

erre ene a

0 1
  C     -149.838      13.925    -111.044
  O     -149.100      13.196    -112.009
  P     -147.768      12.438    -111.533
  C     -146.306      14.318    -112.568
  O     -146.592      13.528    -111.424
  C     -144.888      14.048    -113.078
  O     -144.649      14.821    -114.288
  C     -143.793      14.427    -112.071
  O     -142.690      13.513    -112.206
  C     -143.320      15.782    -112.562
  O     -141.995      16.067    -112.115
  C     -143.459      15.610    -114.071
  N     -140.844      19.586    -115.778
  C     -140.389      18.353    -115.354
  N     -139.049      18.193    -115.303
  N     -141.173      17.366    -115.022
  C     -142.493      17.672    -115.121
  C     -143.067      18.853    -115.543
  C     -142.181      19.945    -115.895
  O     -142.521      21.069    -116.250
  N     -144.435      18.777    -115.539
  C     -144.696      17.566    -115.076
  N     -143.553      16.871    -114.774
  O     -147.365      11.582    -112.828
  O     -147.945      11.561    -110.338
  H     -141.394      15.478    -112.613
  H     -147.581      10.638    -112.676
  H     -140.198      20.321    -116.017
  H     -145.687      17.156    -114.923
  H     -142.610      15.051    -114.492
  H     -143.983      16.569    -112.178
  H     -138.386      18.936    -115.478
  H     -144.124      14.446    -111.027
  H     -138.687      17.312    -114.955
  H     -144.808      12.991    -113.355
  H     -146.397      15.373    -112.307
  H     -147.037      14.098    -113.357
  P     -142.656      12.297    -111.155
  C     -141.357      13.603    -109.317
  O     -142.558      12.968    -109.706
  O     -141.203      11.660    -111.378
  O     -143.751      11.295    -111.343
  H     -141.199      10.719    -111.119
  H     -141.557      14.668    -109.158
  H     -140.568      13.495    -110.065
  H     -141.012      13.161    -108.377
  H     -150.692      14.371    -111.510
  H     -149.219      14.691    -110.626
  H     -150.160      13.264    -110.267

 3  4  5  6  7  8  9  10  11  12  23  26  30  31 0
 6-311+G(2d,p)
 ****
 33  35  36  37  38 0
 6-311+G(2d,p)
 ****
 1  2  13  14  15  16  17  18  19  20  21  22  24  25 0
 3-21G
 ****
 27  28  29  32  34  39  40  41  42  43  44  45  46  47  48  49 0
 3-21G
 ****


