%nproc=1
%NoSave
%Mem=1900MB
#P OB98/GEN NMR

erre ene a

0 1
  C      526.708    -121.271    -658.658
  O      526.164    -120.834    -657.432
  H      527.618    -121.841    -658.454
  H      526.965    -120.420    -659.291
  H      526.003    -121.924    -659.180
  P      524.849    -119.918    -657.457
  C      523.501    -121.675    -656.126
  O      523.592    -120.907    -657.324
  C      522.404    -122.738    -656.260
  O      521.124    -122.073    -656.126
  C      522.437    -123.447    -657.625
  O      522.471    -124.867    -657.508
  C      521.269    -122.816    -658.370
  O      520.713    -123.630    -659.381
  C      520.298    -122.432    -657.248
  N      519.395    -121.343    -657.596
  C      518.133    -121.682    -658.073
  O      517.718    -122.833    -658.219
  N      517.317    -120.633    -658.396
  C      517.633    -119.309    -658.300
  O      516.854    -118.409    -658.606
  C      518.988    -119.009    -657.818
  C      519.798    -120.027    -657.486
  O      524.763    -118.948    -658.589
  O      524.871    -119.171    -656.039
  H      521.425    -123.825    -660.023
  H      525.139    -118.239    -656.169
  H      516.395    -120.867    -658.729
  H      519.276    -117.972    -657.738
  H      520.802    -119.838    -657.124
  H      519.685    -123.292    -656.960
  H      521.625    -121.899    -658.863
  H      523.367    -123.217    -658.154
  H      522.501    -123.450    -655.434
  H      523.268    -120.990    -655.306
  H      524.462    -122.159    -655.928
  P      523.795    -125.742    -657.342
  C      523.112    -126.539    -654.929
  O      524.081    -125.939    -655.781
  O      524.954    -125.340    -658.195
  O      523.340    -127.217    -657.811
  H      524.125    -127.632    -658.217
  H      523.492    -126.579    -653.929
  H      522.902    -127.531    -655.271
  H      522.214    -125.958    -654.946

 6  7  8  9  10  11  12  13  14  15  16  26  31  32  33  34  35 0
 6-311+G(2d,p)
 ****
 36  37 0
 6-311+G(2d,p)
 ****
 1  2  3  4  5  17  18  19  20  21  22  23  24  25 0
 3-21G
 ****
 27  28  29  30  38  39  40  41  42  43  44  45 0
 3-21G
 ****


