%nproc=1
%NoSave
%Mem=1900MB
#P OB98/GEN NMR

erre ene a

0 1
  C      201.976    -240.518    -805.910
  O      200.889    -241.420    -805.923
  H      202.905    -241.047    -806.153
  H      201.799    -239.743    -806.655
  H      202.055    -240.052    -804.921
  P      201.005    -242.696    -804.970
  C      199.395    -241.952    -803.071
  O      199.603    -242.813    -804.180
  C      198.144    -242.369    -802.304
  O      196.964    -242.123    -803.104
  C      198.079    -243.847    -801.940
  O      198.875    -244.150    -800.807
  C      196.598    -243.995    -801.633
  O      196.319    -243.517    -800.308
  C      195.943    -243.059    -802.679
  N      191.817    -245.253    -804.790
  C      191.996    -244.645    -803.598
  N      193.121    -244.101    -803.101
  C      194.145    -244.193    -803.982
  C      194.098    -244.795    -805.226
  C      192.875    -245.354    -805.633
  N      192.696    -245.988    -806.848
  N      195.331    -244.701    -805.850
  C      196.102    -244.079    -804.989
  N      195.427    -243.755    -803.840
  O      202.029    -242.221    -803.825
  O      201.484    -243.953    -805.622
  H      195.409    -243.801    -800.096
  H      202.589    -242.974    -803.561
  H      191.122    -244.569    -802.964
  H      197.143    -243.817    -805.159
  H      195.132    -242.469    -802.223
  H      196.250    -245.026    -801.690
  H      198.345    -244.476    -802.799
  H      198.084    -241.734    -801.406
  H      199.270    -240.919    -803.433
  H      191.767    -246.182    -807.163
  H      193.497    -246.037    -807.471
  H      200.273    -241.985    -802.417
  P      198.983    -245.689    -800.353
  C      201.445    -245.852    -801.195
  O      200.543    -245.970    -800.092
  O      198.703    -246.477    -801.719
  O      198.047    -246.090    -799.274
  H      198.336    -247.369    -801.534
  H      202.440    -246.068    -800.866
  H      201.405    -244.856    -801.583
  H      201.164    -246.545    -801.961

 6  7  8  9  10  11  12  13  14  15  25  28  32  33  34  35 0
 6-311+G(2d,p)
 ****
 36  39  40 0
 6-311+G(2d,p)
 ****
 1  2  3  4  5  16  17  18  19  20  21  22  23  24 0
 3-21G
 ****
 26  27  29  30  31  37  38  41  42  43  44  45  46  47  48 0
 3-21G
 ****


