%nproc=1
%NoSave
%Mem=1900MB
#P OB98/GEN NMR

erre ene a

0 1
  C      589.190    -538.604     769.191
  O      589.182    -538.386     770.584
  H      588.289    -538.164     768.758
  H      589.188    -539.677     768.979
  H      590.067    -538.136     768.731
  P      590.491    -538.809     771.406
  C      590.977    -536.313     771.937
  O      591.473    -537.532     771.402
  C      591.866    -535.145     771.496
  O      592.093    -535.234     770.068
  C      591.257    -533.771     771.793
  O      592.307    -532.891     772.202
  C      590.714    -533.323     770.445
  O      590.619    -531.905     770.338
  C      591.710    -533.987     769.477
  N      591.120    -534.157     768.152
  C      591.496    -533.240     767.172
  O      592.278    -532.330     767.441
  N      590.937    -533.333     765.920
  C      590.014    -534.224     765.702
  N      589.473    -534.241     764.449
  C      589.535    -535.165     766.728
  C      590.129    -535.086     767.917
  O      591.230    -539.839     770.432
  O      590.240    -539.388     772.759
  H      590.026    -531.585     771.056
  H      591.719    -540.521     770.933
  H      588.741    -535.865     766.501
  H      589.841    -535.738     768.732
  H      592.614    -533.369     769.385
  H      589.710    -533.739     770.301
  H      590.482    -533.798     772.564
  H      592.845    -535.255     771.985
  H      589.814    -533.566     763.775
  H      590.987    -536.374     773.031
  H      588.720    -534.860     764.180
  H      589.945    -536.153     771.600
  P      592.659    -532.856     773.771
  C      595.087    -533.725     773.451
  O      593.809    -533.937     774.042
  O      591.361    -533.500     774.448
  O      592.930    -531.483     774.297
  H      590.847    -532.818     774.911
  H      595.743    -534.526     773.722
  H      595.492    -532.798     773.801
  H      594.986    -533.691     772.386

 6  7  8  9  10  11  12  13  14  15  16  26  30  31  32  33  35 0
 6-311+G(2d,p)
 ****
 37  38 0
 6-311+G(2d,p)
 ****
 1  2  3  4  5  17  18  19  20  21  22  23  24  25 0
 3-21G
 ****
 27  28  29  34  36  39  40  41  42  43  44  45  46 0
 3-21G
 ****


