%nproc=1
%NoSave
%Mem=1900MB
#P OB98/GEN NMR

erre ene a

0 1
  C     1314.214     664.914     347.956
  O     1313.073     665.188     348.751
  P     1311.997     664.066     349.082
  C     1313.210     663.387     351.320
  O     1312.666     663.007     350.069
  C     1312.463     662.643     352.444
  O     1312.424     661.227     352.168
  C     1313.133     662.859     353.800
  O     1312.523     663.930     354.502
  C     1312.930     661.498     354.481
  O     1311.611     661.409     355.040
  C     1313.073     660.529     353.279
  N     1314.436     660.134     352.824
  C     1315.157     659.219     353.578
  O     1314.728     658.672     354.586
  N     1316.436     658.976     353.127
  C     1317.005     659.503     351.998
  O     1318.206     659.452     351.765
  C     1316.104     660.245     351.120
  C     1314.889     660.549     351.586
  O     1311.897     663.251     347.705
  O     1310.665     664.544     349.552
  H     1311.592     661.953     355.826
  H     1311.116     663.545     347.197
  H     1317.011     658.395     353.743
  H     1316.477     660.570     350.157
  H     1314.217     661.130     350.968
  H     1312.504     659.593     353.457
  H     1313.645     661.372     355.303
  H     1314.223     663.014     353.674
  H     1311.438     663.007     352.482
  H     1313.106     664.469     351.451
  H     1314.284     663.144     351.360
  P     1313.410     664.791     355.520
  C     1313.913     666.148     353.388
  O     1314.465     665.593     354.588
  O     1314.003     664.041     356.655
  O     1312.377     665.917     356.018
  H     1312.004     665.656     356.878
  H     1314.682     666.812     352.960
  H     1313.015     666.705     353.598
  H     1313.716     665.317     352.691
  H     1314.802     665.802     347.858
  H     1313.903     664.584     346.987
  H     1314.798     664.149     348.423

 3  4  5  6  7  8  9  10  11  12  13  23  28  29  30  31  32 0
 6-311+G(2d,p)
 ****
 33  34 0
 6-311+G(2d,p)
 ****
 1  2  14  15  16  17  18  19  20  21  22  24  25  26  27 0
 3-21G
 ****
 35  36  37  38  39  40  41  42  43  44  45 0
 3-21G
 ****


