%nproc=1
%NoSave
%Mem=1900MB
#P OB98/GEN NMR

erre ene a

0 1
  C       89.035    -231.067     151.826
  O       87.637    -230.856     151.686
  P       86.651    -232.057     152.085
  C       87.526    -233.668     150.226
  O       86.432    -232.935     150.758
  C       87.391    -233.806     148.705
  O       88.494    -234.622     148.219
  C       86.089    -234.470     148.232
  O       85.760    -233.882     146.967
  C       86.498    -235.922     148.033
  O       85.621    -236.621     147.154
  C       87.921    -235.740     147.507
  N       89.031    -240.369     145.772
  C       88.062    -239.471     145.346
  N       87.335    -239.843     144.266
  N       87.836    -238.321     145.921
  C       88.658    -238.081     146.979
  C       89.621    -238.903     147.518
  C       89.889    -240.155     146.848
  O       90.790    -240.939     147.134
  N       90.184    -238.351     148.636
  C       89.620    -237.167     148.729
  N       88.723    -236.934     147.717
  O       85.249    -231.319     152.287
  O       87.056    -232.861     153.285
  H       85.988    -237.523     147.021
  H       85.106    -231.082     153.225
  H       89.174    -241.230     145.274
  H       89.818    -236.431     149.496
  H       87.942    -235.512     146.429
  H       86.501    -236.443     148.996
  H       87.478    -240.700     143.756
  H       85.265    -234.359     148.936
  H       86.639    -239.187     143.915
  H       87.499    -232.814     148.257
  H       87.526    -234.671     150.667
  H       88.468    -233.170     150.490
  P       84.312    -233.204     146.812
  C       83.010    -235.257     147.708
  O       83.247    -234.377     146.624
  O       84.392    -232.541     145.350
  O       83.987    -232.174     147.851
  H       83.851    -231.730     145.326
  H       82.025    -235.716     147.589
  H       83.040    -234.733     148.672
  H       83.771    -236.050     147.708
  H       89.561    -230.185     151.524
  H       89.335    -231.889     151.211
  H       89.262    -231.285     152.849

 3  4  5  6  7  8  9  10  11  12  23  26  30  31 0
 6-311+G(2d,p)
 ****
 33  35  36  37  38 0
 6-311+G(2d,p)
 ****
 1  2  13  14  15  16  17  18  19  20  21  22  24  25 0
 3-21G
 ****
 27  28  29  32  34  39  40  41  42  43  44  45  46  47  48  49 0
 3-21G
 ****


