%nproc=1
%NoSave
%Mem=1900MB
#P OB98/GEN NMR

erre ene a

0 1
  C       60.435      63.351    -132.002
  O       60.029      64.617    -131.514
  H       60.054      63.227    -133.019
  H       60.020      62.560    -131.370
  H       61.526      63.280    -132.021
  P       60.680      65.089    -130.129
  C       60.535      64.273    -127.640
  O       60.254      64.015    -129.010
  C       60.481      62.974    -126.840
  O       61.232      61.936    -127.501
  C       61.123      63.060    -125.465
  O       60.346      63.800    -124.548
  C       61.235      61.583    -125.112
  O       60.016      61.078    -124.553
  C       61.515      60.937    -126.491
  N       62.870      60.426    -126.581
  C       63.205      59.440    -125.642
  O       62.363      59.051    -124.831
  N       64.486      58.954    -125.627
  C       65.365      59.428    -126.454
  N       66.627      58.926    -126.365
  C       65.056      60.469    -127.457
  C       63.801      60.920    -127.465
  O       59.805      66.373    -129.756
  O       62.149      65.345    -130.184
  H       60.218      60.178    -124.222
  H       58.846      66.225    -129.817
  H       65.823      60.821    -128.133
  H       63.488      61.683    -128.168
  H       60.822      60.103    -126.672
  H       62.022      61.404    -124.374
  H       62.140      63.470    -125.546
  H       59.432      62.657    -126.772
  H       66.809      58.255    -125.627
  H       59.824      64.999    -127.232
  H       67.408      59.274    -126.900
  H       61.534      64.717    -127.583
  P       60.865      64.093    -123.062
  C       61.713      62.645    -121.105
  O       60.970      62.669    -122.319
  O       60.095      65.123    -122.307
  O       62.408      64.466    -123.283
  H       62.942      63.767    -123.703
  H       61.713      61.652    -120.706
  H       61.265      63.313    -120.399
  H       62.720      62.952    -121.297

 6  7  8  9  10  11  12  13  14  15  16  26  30  31  32  33  35 0
 6-311+G(2d,p)
 ****
 37  38 0
 6-311+G(2d,p)
 ****
 1  2  3  4  5  17  18  19  20  21  22  23  24  25 0
 3-21G
 ****
 27  28  29  34  36  39  40  41  42  43  44  45  46 0
 3-21G
 ****


