%nproc=1
%NoSave
%Mem=1900MB
#P OB98/GEN NMR

erre ene a

0 1
  C     -372.279     167.481     155.673
  O     -371.070     167.928     156.269
  H     -372.161     166.431     155.394
  H     -372.509     168.061     154.775
  H     -373.099     167.564     156.390
  P     -370.897     169.503     156.530
  C     -368.315     169.561     156.394
  O     -369.544     169.918     155.764
  C     -367.146     169.652     155.406
  O     -367.218     168.582     154.447
  C     -367.144     170.929     154.574
  O     -366.859     172.100     155.313
  C     -366.265     170.553     153.390
  O     -364.873     170.742     153.637
  C     -366.569     169.037     153.242
  N     -367.364     168.753     152.054
  C     -366.720     168.039     151.050
  O     -365.545     167.674     151.119
  N     -367.460     167.790     149.921
  C     -368.741     168.218     149.696
  O     -369.341     167.992     148.649
  C     -369.362     168.987     150.785
  C     -368.652     169.223     151.897
  O     -370.934     169.931     157.967
  O     -372.041     170.168     155.633
  H     -364.664     170.252     154.461
  H     -372.214     171.102     155.906
  H     -367.015     167.260     149.194
  H     -370.371     169.352     150.640
  H     -369.087     169.794     152.716
  H     -365.632     168.470     153.160
  H     -366.518     171.132     152.503
  H     -368.154     171.075     154.173
  H     -366.211     169.551     155.969
  H     -368.411     168.528     156.739
  H     -368.139     170.210     157.255
  P     -367.946     173.220     155.640
  C     -366.235     174.891     156.664
  O     -367.212     174.653     155.653
  O     -368.923     172.912     156.732
  O     -368.772     173.277     154.256
  H     -369.708     173.469     154.472
  H     -365.835     175.877     156.549
  H     -365.446     174.174     156.574
  H     -366.690     174.801     157.628

 6  7  8  9  10  11  12  13  14  15  16  26  31  32  33  34  35 0
 6-311+G(2d,p)
 ****
 36  37 0
 6-311+G(2d,p)
 ****
 1  2  3  4  5  17  18  19  20  21  22  23  24  25 0
 3-21G
 ****
 27  28  29  30  38  39  40  41  42  43  44  45 0
 3-21G
 ****


