%nproc=1
%NoSave
%Mem=1900MB
#P OB98/GEN NMR

erre ene a

0 1
  C     -474.799    -748.568    -219.531
  O     -473.829    -749.594    -219.669
  P     -474.141    -751.091    -219.207
  C     -472.930    -752.708    -220.791
  O     -472.862    -751.997    -219.564
  C     -471.813    -753.769    -220.892
  O     -470.552    -753.103    -221.147
  C     -471.660    -754.615    -219.625
  O     -471.355    -755.953    -220.055
  C     -470.457    -753.996    -218.945
  O     -469.813    -754.890    -218.033
  C     -469.621    -753.578    -220.148
  N     -468.626    -752.568    -219.822
  C     -467.457    -752.998    -219.185
  O     -467.354    -754.166    -218.806
  N     -466.454    -752.091    -218.977
  C     -466.653    -750.838    -219.224
  N     -465.599    -749.986    -219.081
  C     -467.961    -750.306    -219.676
  C     -468.883    -751.216    -219.978
  O     -475.440    -751.643    -219.682
  O     -474.096    -751.031    -217.598
  H     -474.933    -751.407    -217.240
  H     -470.481    -755.226    -217.402
  H     -468.135    -749.241    -219.727
  H     -469.865    -750.934    -220.340
  H     -469.102    -754.445    -220.577
  H     -470.772    -753.105    -218.374
  H     -472.549    -754.632    -219.005
  H     -472.033    -754.410    -221.742
  H     -464.715    -750.389    -218.815
  H     -472.807    -751.986    -221.606
  H     -465.586    -749.069    -219.531
  H     -473.912    -753.166    -220.904
  P     -472.078    -757.172    -219.295
  C     -471.724    -758.859    -221.257
  O     -471.480    -758.547    -219.890
  O     -473.548    -757.142    -219.972
  O     -472.215    -757.070    -217.811
  H     -474.185    -757.549    -219.347
  H     -471.297    -759.848    -221.451
  H     -471.239    -758.129    -221.893
  H     -472.784    -758.877    -221.451
  H     -474.397    -747.646    -219.896
  H     -475.059    -748.460    -218.499
  H     -475.672    -748.824    -220.094

 3  4  5  6  7  8  9  10  11  12  13  24  27  28  29  30  32 0
 6-311+G(2d,p)
 ****
 34  35 0
 6-311+G(2d,p)
 ****
 1  2  14  15  16  17  18  19  20  21  22  23  25  26 0
 3-21G
 ****
 31  33  36  37  38  39  40  41  42  43  44  45  46 0
 3-21G
 ****


