%nproc=1
%NoSave
%Mem=1900MB
#P OB98/GEN NMR

erre ene a

0 1
  C      -45.808     -15.315      27.782
  O      -46.979     -14.714      27.262
  H      -46.048     -15.772      28.745
  H      -45.034     -14.558      27.934
  H      -45.449     -16.090      27.101
  P      -46.842     -14.003      25.830
  C      -45.843     -11.862      26.890
  O      -45.633     -12.966      26.019
  C      -44.667     -10.892      26.817
  O      -43.453     -11.535      27.243
  C      -44.382     -10.355      25.419
  O      -45.261      -9.289      25.099
  C      -42.950      -9.873      25.587
  O      -42.941      -8.590      26.244
  C      -42.344     -10.941      26.517
  N      -37.743     -12.435      24.799
  C      -38.182     -11.249      25.274
  N      -39.427     -10.912      25.671
  C      -40.267     -11.952      25.542
  C      -39.963     -13.221      25.074
  C      -38.629     -13.453      24.699
  N      -38.182     -14.668      24.225
  N      -41.082     -14.027      25.082
  C      -42.032     -13.274      25.598
  N      -41.599     -11.998      25.859
  O      -48.102     -13.454      25.257
  O      -46.158     -15.172      24.974
  H      -42.040      -8.224      26.160
  H      -45.503     -15.651      25.511
  H      -37.433     -10.466      25.345
  H      -43.040     -13.606      25.816
  H      -41.667     -10.497      27.256
  H      -42.439      -9.744      24.631
  H      -44.406     -11.153      24.671
  H      -44.865     -10.072      27.519
  H      -45.977     -12.209      27.920
  H      -37.259     -14.698      23.820
  H      -38.868     -15.384      24.035
  H      -46.764     -11.364      26.571
  P      -45.768      -9.073      23.593
  C      -43.603      -7.749      23.178
  O      -44.460      -8.783      22.708
  O      -46.859      -8.071      23.432
  O      -46.218     -10.527      23.108
  H      -47.017     -10.466      22.549
  H      -42.771      -7.646      22.513
  H      -43.249      -7.996      24.157
  H      -44.145      -6.827      23.217

 6  7  8  9  10  11  12  13  14  15  25  28  32  33  34  35 0
 6-311+G(2d,p)
 ****
 36  39  40 0
 6-311+G(2d,p)
 ****
 1  2  3  4  5  16  17  18  19  20  21  22  23  24 0
 3-21G
 ****
 26  27  29  30  31  37  38  41  42  43  44  45  46  47 0
 3-21G
 ****
 48 0
 3-21G
 ****


