%nproc=1
%NoSave
%Mem=1900MB
#P OB98/GEN NMR

erre ene a

0 1
  C     -169.705    -198.950     245.721
  O     -169.708    -199.993     244.764
  H     -170.220    -198.082     245.297
  H     -168.682    -198.655     245.974
  H     -170.233    -199.262     246.626
  P     -168.876    -201.324     245.093
  C     -170.890    -202.951     245.052
  O     -169.903    -202.297     245.844
  C     -171.974    -203.540     245.947
  O     -172.886    -202.509     246.377
  C     -172.832    -204.585     245.245
  O     -172.138    -205.811     245.123
  C     -174.053    -204.607     246.145
  O     -173.822    -205.397     247.316
  C     -174.195    -203.111     246.507
  N     -175.175    -202.417     245.675
  C     -176.519    -202.632     246.004
  O     -176.822    -203.362     246.946
  N     -177.483    -202.027     245.233
  C     -177.138    -201.268     244.240
  N     -178.142    -200.701     243.520
  C     -175.735    -201.006     243.870
  C     -174.814    -201.613     244.619
  O     -167.567    -201.145     245.799
  O     -168.697    -202.019     243.662
  H     -174.652    -205.364     247.831
  H     -167.879    -201.709     243.232
  H     -175.496    -200.359     243.039
  H     -173.758    -201.471     244.416
  H     -174.495    -202.998     247.559
  H     -174.919    -205.021     245.633
  H     -173.141    -204.215     244.259
  H     -171.496    -203.961     246.843
  H     -179.091    -200.917     243.803
  H     -170.385    -203.746     244.496
  H     -177.997    -200.024     242.784
  H     -171.330    -202.250     244.333
  P     -172.096    -206.592     243.721
  C     -169.721    -207.538     243.391
  O     -170.593    -206.428     243.182
  O     -173.170    -206.217     242.752
  O     -172.151    -208.130     244.168
  H     -173.060    -208.387     244.467
  H     -168.754    -207.312     242.992
  H     -170.118    -208.401     242.898
  H     -169.637    -207.733     244.440

 6  7  8  9  10  11  12  13  14  15  16  26  30  31  32  33  35 0
 6-311+G(2d,p)
 ****
 37  38 0
 6-311+G(2d,p)
 ****
 1  2  3  4  5  17  18  19  20  21  22  23  24  25 0
 3-21G
 ****
 27  28  29  34  36  39  40  41  42  43  44  45  46 0
 3-21G
 ****


