%nproc=1
%NoSave
%Mem=1900MB
#P OB98/GEN NMR

erre ene a

0 1
  C       67.773     422.552     232.798
  O       67.225     423.868     232.646
  P       66.255     424.127     231.396
  C       64.191     425.715     231.061
  O       65.371     425.404     231.792
  C       63.350     426.724     231.835
  O       62.837     426.137     233.057
  C       64.111     427.972     232.273
  O       64.345     428.849     231.175
  C       63.177     428.520     233.342
  O       62.091     429.248     232.737
  C       62.642     427.222     233.996
  N       63.263     426.934     235.280
  C       62.400     426.539     236.305
  O       61.179     426.456     236.154
  N       62.989     426.255     237.510
  C       64.318     426.363     237.798
  O       64.785     426.087     238.894
  C       65.172     426.834     236.698
  C       64.617     427.097     235.507
  O       65.244     422.887     231.525
  O       66.987     424.219     230.098
  H       65.057     422.647     232.448
  H       62.446     430.125     232.497
  H       62.382     425.951     238.256
  H       66.233     426.956     236.896
  H       65.231     427.448     234.685
  H       61.554     427.298     234.156
  H       63.683     429.204     234.034
  H       65.065     427.687     232.727
  H       62.492     427.014     231.206
  H       63.607     424.806     230.901
  H       64.471     426.103     230.079
  P       65.758     428.703     230.421
  C       66.408     429.253     227.944
  O       65.660     429.596     229.091
  O       65.670     427.193     229.891
  O       66.935     428.976     231.305
  H       64.802     426.979     229.498
  H       65.960     429.738     227.080
  H       66.412     428.168     227.784
  H       67.440     429.606     228.060
  H       68.397     422.524     233.667
  H       68.354     422.306     231.934
  H       66.977     421.845     232.907

 3  4  5  6  7  8  9  10  11  12  13  24  28  29  30  31  32 0
 6-311+G(2d,p)
 ****
 33  34 0
 6-311+G(2d,p)
 ****
 1  2  14  15  16  17  18  19  20  21  22  23  25  26  27 0
 3-21G
 ****
 35  36  37  38  39  40  41  42  43  44  45 0
 3-21G
 ****


