%nproc=1
%NoSave
%Mem=1900MB
#P OB98/GEN NMR

erre ene a

0 1
  C      242.723    -802.772      88.618
  O      242.239    -801.815      89.539
  H      241.983    -802.942      87.833
  H      243.637    -802.383      88.155
  H      242.956    -803.707      89.130
  P      240.879    -802.198      90.309
  C      241.924    -802.162      92.683
  O      240.990    -801.573      91.791
  C      241.708    -801.647      94.090
  O      242.125    -800.256      94.150
  C      240.242    -801.716      94.578
  O      240.157    -802.349      95.865
  C      239.824    -800.262      94.715
  O      238.910    -800.046      95.783
  C      241.149    -799.557      94.943
  N      239.894    -794.888      96.574
  C      240.204    -796.014      97.240
  N      240.623    -797.205      96.762
  C      240.746    -797.133      95.424
  C      240.492    -796.061      94.594
  C      240.018    -794.889      95.227
  N      239.648    -793.769      94.522
  N      240.716    -796.382      93.259
  C      241.064    -797.643      93.286
  N      241.092    -798.157      94.559
  O      241.030    -803.775      90.556
  O      239.635    -801.877      89.565
  H      239.362    -800.294      96.612
  H      240.300    -804.234      90.094
  H      240.093    -795.968      98.327
  H      241.279    -798.259      92.417
  H      241.470    -799.616      95.987
  H      239.344    -799.925      93.778
  H      239.595    -802.254      93.863
  H      242.358    -802.202      94.784
  H      242.944    -801.907      92.358
  H      239.208    -793.013      95.047
  H      239.626    -793.786      93.519
  H      241.810    -803.255      92.646
  P      239.433    -803.781      95.908
  C      241.176    -804.884      97.490
  O      239.823    -804.482      97.294
  O      240.231    -804.625      94.804
  O      237.963    -803.732      95.597
  H      239.610    -804.975      94.131
  H      241.278    -805.333      98.456
  H      241.815    -804.028      97.425
  H      241.450    -805.592      96.736

 6  7  8  9  10  11  12  13  14  15  25  28  32  33  34  35 0
 6-311+G(2d,p)
 ****
 36  39  40 0
 6-311+G(2d,p)
 ****
 1  2  3  4  5  16  17  18  19  20  21  22  23  24 0
 3-21G
 ****
 26  27  29  30  31  37  38  41  42  43  44  45  46  47  48 0
 3-21G
 ****


