%nproc=1
%NoSave
%Mem=1900MB
#P OB98/GEN NMR

erre ene a

0 1
  C      204.579    -232.459    -545.929
  O      203.971    -231.668    -546.951
  P      202.479    -231.158    -546.691
  C      203.070    -229.235    -548.326
  O      202.114    -230.219    -547.945
  C      202.598    -228.489    -549.569
  O      201.387    -227.784    -549.279
  C      203.575    -227.437    -550.082
  O      204.611    -228.013    -550.865
  C      202.650    -226.587    -550.952
  O      202.489    -227.197    -552.237
  C      201.328    -226.619    -550.151
  N      200.039    -221.726    -550.204
  C      200.155    -222.616    -551.249
  N      199.858    -222.150    -552.484
  N      200.525    -223.860    -551.100
  C      200.755    -224.205    -549.819
  C      200.689    -223.411    -548.684
  C      200.318    -222.019    -548.865
  O      200.256    -221.165    -547.995
  N      200.978    -224.104    -547.547
  C      201.185    -225.339    -547.974
  N      201.095    -225.438    -549.350
  O      202.647    -230.116    -545.478
  O      201.484    -232.228    -546.360
  H      201.868    -226.640    -552.749
  H      201.807    -230.047    -544.987
  H      199.730    -220.781    -550.375
  H      201.405    -226.189    -547.328
  H      200.475    -226.766    -550.823
  H      203.043    -225.575    -551.125
  H      199.438    -221.235    -552.638
  H      203.970    -226.827    -549.263
  H      199.895    -222.800    -553.253
  H      202.380    -229.231    -550.352
  H      204.029    -229.723    -548.541
  H      203.219    -228.539    -547.485
  P      206.108    -227.862    -550.283
  C      206.464    -229.945    -551.794
  O      207.022    -228.767    -551.247
  O      206.055    -228.664    -548.908
  O      206.556    -226.442    -550.088
  H      206.733    -228.331    -548.293
  H      205.405    -229.813    -552.041
  H      206.566    -230.766    -551.082
  H      207.013    -230.201    -552.707
  H      205.569    -232.731    -546.230
  H      203.999    -233.344    -545.770
  H      204.625    -231.895    -545.021

 3  4  5  6  7  8  9  10  11  12  23  26  30  31  33  0
 6-311+G(2d,p)
 ****
 35  36  37  38 0
 6-311+G(2d,p)
 ****
 1  2  13  14  15  16  17  18  19  20  21  22  24  25  27  28  29 0
 3-21G
 ****
 32  34  39  40  41  42  43  44  45  46  47  48  49 0
 3-21G
 ****


