%nproc=1
%NoSave
%Mem=1900MB
#P OB98/GEN NMR

erre ene a

0 1
  C     -400.294      -0.421    -111.645
  O     -401.049      -1.170    -112.581
  P     -400.795      -0.874    -114.140
  C     -398.541      -2.137    -114.438
  O     -399.204      -0.880    -114.332
  C     -398.011      -2.338    -115.856
  O     -399.070      -2.796    -116.715
  C     -397.477      -1.073    -116.502
  O     -396.189      -0.766    -116.008
  C     -397.496      -1.458    -117.977
  O     -396.288      -2.141    -118.350
  C     -398.716      -2.406    -118.062
  N     -399.843      -1.804    -118.754
  C     -399.955      -2.109    -120.118
  O     -399.115      -2.829    -120.659
  N     -400.989      -1.557    -120.833
  C     -401.831      -0.771    -120.241
  N     -402.839      -0.257    -120.999
  C     -401.738      -0.408    -118.815
  C     -400.726      -0.950    -118.137
  O     -401.184       0.669    -114.284
  O     -401.566      -1.747    -115.074
  H     -395.576      -1.472    -118.279
  H     -401.470       0.873    -115.194
  H     -402.466       0.255    -118.368
  H     -400.581      -0.737    -117.084
  H     -398.445      -3.327    -118.592
  H     -397.577      -0.579    -118.625
  H     -398.163      -0.233    -116.332
  H     -397.234      -3.116    -115.825
  H     -402.874      -0.518    -121.975
  H     -399.247      -2.939    -114.207
  H     -403.555       0.347    -120.627
  H     -397.723      -2.170    -113.711
  P     -395.695       0.754    -116.107
  C     -396.549       0.893    -113.695
  O     -396.499       1.528    -114.957
  O     -396.438       1.264    -117.436
  O     -394.223       0.992    -116.162
  H     -396.133       2.160    -117.662
  H     -396.985       1.589    -112.971
  H     -395.543       0.623    -113.362
  H     -397.177       0.000    -113.747
  H     -400.561      -0.717    -110.652
  H     -400.499       0.621    -111.774
  H     -399.251      -0.601    -111.802

 3  4  5  6  7  8  9  10  11  12  13  21  23  27  28  29  30  32 0
 6-311+G(2d,p)
 ****
 34  35 0
 6-311+G(2d,p)
 ****
 1  2  14  15  16  17  18  19  20  22  24  25  26 0
 3-21G
 ****
 31  33  36  37  38  39  40  41  42  43  44  45  46 0
 3-21G
 ****


