%nproc=1
%NoSave
%Mem=1900MB
#P OB98/GEN NMR

erre ene a

0 1
  C     -272.957     -88.136    -360.098
  O     -271.619     -88.101    -359.656
  H     -273.611     -88.151    -359.220
  H     -273.145     -89.042    -360.680
  H     -273.192     -87.249    -360.694
  P     -270.435     -88.116    -360.742
  C     -269.982     -90.537    -360.010
  O     -270.219     -89.671    -361.113
  C     -269.445     -91.891    -360.479
  O     -268.110     -91.721    -361.027
  C     -269.361     -92.944    -359.362
  O     -269.915     -94.181    -359.821
  C     -267.863     -93.108    -359.141
  O     -267.518     -94.370    -358.579
  C     -267.332     -92.837    -360.554
  N     -265.901     -92.561    -360.556
  C     -265.062     -93.668    -360.380
  O     -265.537     -94.795    -360.239
  N     -263.706     -93.462    -360.311
  C     -263.236     -92.254    -360.366
  N     -261.883     -92.120    -360.263
  C     -264.085     -91.058    -360.522
  C     -265.398     -91.281    -360.612
  O     -269.199     -87.389    -360.325
  O     -271.091     -87.525    -362.075
  H     -267.861     -95.078    -359.171
  H     -270.375     -87.177    -362.657
  H     -263.641     -90.074    -360.557
  H     -266.104     -90.465    -360.732
  H     -267.525     -93.694    -361.216
  H     -267.514     -92.326    -358.455
  H     -269.868     -92.644    -358.448
  H     -270.072     -92.244    -361.311
  H     -261.335     -92.968    -360.150
  H     -270.921     -90.667    -359.460
  H     -261.406     -91.231    -360.269
  H     -269.241     -90.068    -359.354
  P     -271.490     -94.384    -359.575
  C     -270.922     -96.309    -357.928
  O     -271.678     -95.133    -358.169
  O     -271.891     -95.492    -360.661
  O     -272.285     -93.132    -359.746
  H     -272.441     -95.085    -361.359
  H     -271.155     -96.690    -356.956
  H     -269.878     -96.079    -357.980
  H     -271.162     -97.045    -358.666

 6  7  8  9  10  11  12  13  14  15  16  26  30  31  32  33  35 0
 6-311+G(2d,p)
 ****
 37  38 0
 6-311+G(2d,p)
 ****
 1  2  3  4  5  17  18  19  20  21  22  23  24  25 0
 3-21G
 ****
 27  28  29  34  36  39  40  41  42  43  44  45  46 0
 3-21G
 ****


