%nproc=1
%NoSave
%Mem=1900MB
#P OB98/GEN NMR

erre ene a

0 1
  C     1116.530    -899.312    -537.928
  O     1116.223    -898.822    -539.221
  P     1117.252    -897.762    -539.875
  C     1115.603    -895.962    -540.876
  O     1116.471    -897.072    -541.091
  C     1114.785    -895.682    -542.127
  O     1115.664    -895.552    -543.296
  C     1113.804    -896.792    -542.506
  O     1112.638    -896.762    -541.674
  C     1113.541    -896.482    -543.980
  O     1112.578    -895.412    -544.107
  C     1114.919    -896.022    -544.456
  N     1115.670    -897.052    -545.161
  C     1115.658    -896.992    -546.557
  O     1115.031    -896.102    -547.166
  N     1116.328    -897.992    -547.212
  C     1116.961    -899.042    -546.632
  O     1117.514    -899.932    -547.283
  C     1116.911    -899.082    -545.156
  C     1116.296    -898.112    -544.485
  O     1118.298    -898.752    -540.566
  O     1117.838    -896.812    -538.861
  H     1117.898    -899.612    -540.806
  H     1111.726    -895.742    -543.709
  H     1116.346    -897.932    -548.209
  H     1117.402    -899.922    -544.674
  H     1116.255    -898.132    -543.411
  H     1114.831    -895.152    -545.105
  H     1113.137    -897.342    -544.526
  H     1114.276    -897.772    -542.412
  H     1114.254    -894.742    -542.007
  H     1116.210    -895.092    -540.646
  H     1114.938    -896.172    -540.021
  P     1112.001    -898.172    -541.253
  C     1109.953    -897.962    -542.848
  O     1110.434    -898.062    -541.537
  O     1112.115    -898.112    -539.654
  O     1112.691    -899.352    -541.887
  H     1111.891    -897.252    -539.303
  H     1108.879    -898.252    -542.858
  H     1110.479    -898.612    -543.528
  H     1110.023    -896.922    -543.198
  H     1115.772    -900.000    -537.618
  H     1116.574    -898.495    -537.238
  H     1117.476    -899.811    -537.951

 3  4  5  6  7  8  9  10  11  12  13  24  28  29  30  31  32 0
 6-311+G(2d,p)
 ****
 33  34 0
 6-311+G(2d,p)
 ****
 1  2  14  15  16  17  18  19  20  21  22  23  25  26  27 0
 3-21G
 ****
 35  36  37  38  39  40  41  42  43  44  45 0
 3-21G
 ****


