%nproc=1
%NoSave
%Mem=1900MB
#P OB98/GEN NMR

erre ene a

0 1
  C       61.687     -11.666      27.165
  O       62.311     -11.322      25.940
  P       61.574     -11.766      24.583
  C       62.962     -13.901      24.071
  O       62.666     -12.556      23.712
  C       64.199     -14.414      23.331
  O       64.465     -15.774      23.750
  C       64.064     -14.405      21.808
  O       65.334     -14.054      21.258
  C       63.765     -15.854      21.471
  O       64.141     -16.173      20.133
  C       64.563     -16.585      22.562
  N       64.066     -17.937      22.795
  C       64.275     -18.872      21.777
  O       64.785     -18.520      20.713
  N       63.857     -20.165      21.969
  C       63.191     -20.471      23.038
  N       62.800     -21.766      23.183
  C       62.841     -19.487      24.079
  C       63.323     -18.258      23.906
  O       61.407     -10.383      23.798
  O       60.270     -12.466      24.783
  H       64.189     -17.152      20.056
  H       60.596     -10.387      23.255
  H       62.251     -19.786      24.934
  H       63.137     -17.476      24.630
  H       65.624     -16.647      22.288
  H       62.692     -16.049      21.585
  H       63.301     -13.706      21.452
  H       65.058     -13.805      23.639
  H       63.039     -22.419      22.448
  H       62.114     -14.536      23.799
  H       62.276     -22.096      23.982
  H       63.104     -13.965      25.153
  P       65.385     -12.831      20.223
  C       66.294     -14.569      18.568
  O       66.450     -13.273      19.110
  O       66.224     -11.745      21.055
  O       64.095     -12.259      19.738
  H       66.273     -10.912      20.551
  H       66.992     -14.687      17.734
  H       65.276     -14.710      18.198
  H       66.526     -15.321      19.328
  H       62.282     -11.311      27.980
  H       61.591     -12.730      27.230
  H       60.717     -11.217      27.210

 3  4  5  6  7  8  9  10  11  12  13  21  23  27  28  29  30  32 0
 6-311+G(2d,p)
 ****
 34  35 0
 6-311+G(2d,p)
 ****
 1  2  14  15  16  17  18  19  20  22  24  25  26 0
 3-21G
 ****
 31  33  36  37  38  39  40  41  42  43  44  45  46 0
 3-21G
 ****


