%nproc=1
%NoSave
%Mem=1900MB
#P OB98/GEN NMR

erre ene a

0 1
  C      -92.949      10.888      69.645
  O      -93.242      11.208      70.990
  H      -93.413      11.635      68.996
  H      -93.355       9.904      69.395
  H      -91.868      10.898      69.478
  P      -92.613      10.251      72.112
  C      -92.782       7.704      72.610
  O      -93.353       8.835      71.962
  C      -93.680       6.487      72.409
  O      -93.819       6.220      70.996
  C      -93.135       5.200      73.018
  O      -93.362       5.137      74.415
  C      -93.907       4.150      72.230
  O      -95.210       3.928      72.784
  C      -94.031       4.798      70.845
  N      -93.487       1.594      66.919
  C      -94.572       1.987      67.621
  N      -94.635       2.864      68.646
  C      -93.416       3.357      68.920
  C      -92.220       3.046      68.297
  C      -92.282       2.118      67.245
  N      -91.172       1.691      66.555
  N      -91.174       3.723      68.892
  C      -91.730       4.437      69.849
  N      -93.081       4.251      69.899
  O      -93.214      10.851      73.471
  O      -91.122      10.193      72.137
  H      -95.603       4.809      72.934
  H      -92.576      11.476      73.862
  H      -95.514       1.535      67.322
  H      -91.198       5.091      70.531
  H      -95.031       4.665      70.415
  H      -93.386       3.192      72.230
  H      -92.067       5.097      72.793
  H      -94.675       6.718      72.811
  H      -92.688       7.911      73.681
  H      -91.786       7.522      72.193
  H      -91.288       1.005      65.827
  H      -90.258       1.995      66.860
  P      -92.662       3.963      75.250
  C      -93.240       1.465      75.679
  O      -93.341       2.579      74.807
  O      -93.208       4.196      76.736
  O      -91.171       3.964      75.197
  H      -92.539       4.655      77.277
  H      -93.740       0.625      75.244
  H      -93.695       1.704      76.617
  H      -92.209       1.226      75.834

 6  7  8  9  10  11  12  13  14  15  25  28  32  33  34  35 0
 6-311+G(2d,p)
 ****
 36  37  40 0
 6-311+G(2d,p)
 ****
 1  2  3  4  5  16  17  18  19  20  21  22  23  24 0
 3-21G
 ****
 26  27  29  30  31  38  39 41  42  43  44  45  46  47  48 0
 3-21G
 ****


