%nproc=1
%NoSave
%Mem=1900MB
#P OB98/GEN NMR

erre ene a

0 1
  C     1069.897     686.577    -167.946
  O     1069.622     687.617    -167.025
  H     1069.012     686.401    -168.559
  H     1070.150     685.649    -167.414
  H     1070.726     686.863    -168.603
  P     1070.735     687.985    -165.936
  C     1069.005     689.833    -165.386
  O     1069.952     688.908    -164.868
  C     1068.018     690.240    -164.288
  O     1067.212     689.103    -163.877
  C     1068.674     690.761    -163.001
  O     1069.189     692.069    -163.123
  C     1067.459     690.704    -162.069
  O     1066.581     691.799    -162.343
  C     1066.806     689.355    -162.502
  N     1067.231     688.224    -161.648
  C     1066.205     687.559    -160.961
  O     1065.033     687.919    -161.063
  N     1066.537     686.509    -160.128
  C     1067.789     686.183    -159.989
  N     1068.070     685.169    -159.095
  C     1068.896     686.849    -160.710
  C     1068.554     687.854    -161.519
  O     1072.023     688.543    -166.454
  O     1070.935     686.627    -165.088
  H     1067.077     692.615    -162.246
  H     1071.617     686.803    -164.392
  H     1069.918     686.536    -160.551
  H     1069.299     688.396    -162.064
  H     1065.716     689.430    -162.485
  H     1067.730     690.757    -161.001
  H     1069.422     690.055    -162.651
  H     1067.333     690.983    -164.724
  H     1067.296     684.767    -158.600
  H     1068.496     689.371    -166.229
  H     1069.009     685.057    -158.743
  H     1069.517     690.738    -165.721
  P     1070.759     692.287    -162.772
  C     1071.304     693.044    -165.188
  O     1071.304     693.371    -163.808
  O     1071.419     690.920    -163.249
  O     1071.039     692.638    -161.330
  H     1071.485     690.283    -162.489
  H     1071.696     693.866    -165.749
  H     1070.303     692.839    -165.506
  H     1071.913     692.179    -165.350

 6  7  8  9  10  11  12  13  14  15  16  26  30  31  32  33  35 0
 6-311+G(2d,p)
 ****
 37  38 0
 6-311+G(2d,p)
 ****
 1  2  3  4  5  17  18  19  20  21  22  23  24  25 0
 3-21G
 ****
 27  28  29  34  36  39  40  41  42  43  44  45  46 0
 3-21G
 ****


