%nproc=1
%NoSave
%Mem=1900MB
#P OB98/GEN NMR

erre ene a

0 1
  C       -7.147    -828.654      68.800
  O       -7.043    -828.333      70.180
  P       -8.054    -827.229      70.761
  C       -8.568    -824.795      70.000
  O       -7.603    -825.840      70.112
  C       -8.125    -823.763      68.970
  O       -8.007    -824.374      67.676
  C       -9.095    -822.605      68.798
  O       -8.962    -821.685      69.869
  C       -8.660    -822.054      67.447
  O       -7.581    -821.105      67.594
  C       -8.189    -823.318      66.698
  N       -9.105    -823.716      65.644
  C       -9.035    -822.968      64.461
  O       -8.251    -822.023      64.374
  N       -9.885    -823.286      63.432
  C      -10.735    -824.259      63.575
  N      -11.547    -824.533      62.519
  C      -10.853    -825.060      64.808
  C      -10.022    -824.735      65.794
  O       -7.598    -827.094      72.287
  O       -9.499    -827.571      70.620
  H       -7.898    -820.458      68.255
  H       -8.349    -826.794      72.846
  H      -11.572    -825.858      64.875
  H      -10.039    -825.265      66.740
  H       -7.204    -823.153      66.249
  H       -9.473    -821.522      66.942
  H      -10.124    -822.974      68.741
  H       -7.123    -823.397      69.264
  H      -11.450    -823.963      61.686
  H       -8.679    -824.302      70.971
  H      -12.226    -825.283      62.520
  H       -9.531    -825.239      69.718
  P      -10.253    -820.840      70.283
  C      -11.686    -819.254      68.868
  O      -10.380    -819.701      69.164
  O       -9.723    -820.012      71.553
  O      -11.500    -821.605      70.589
  H      -10.462    -819.522      71.961
  H      -11.622    -818.381      68.215
  H      -12.212    -818.968      69.788
  H      -12.243    -820.043      68.349
  H       -6.419    -829.398      68.551
  H       -6.973    -827.775      68.215
  H       -8.127    -829.031      68.594

 3  4  5  6  7  8  9  10  11  12  13  21  23  27  28  29  30  32 0
 6-311+G(2d,p)
 ****
 34  35 0
 6-311+G(2d,p)
 ****
 1  2  14  15  16  17  18  19  20  22  24  25  26 0
 3-21G
 ****
 31  33  36  37  38  39  40  41  42  43  44  45  46 0
 3-21G
 ****


