%nproc=1
%NoSave
%Mem=1900MB
#P OB98/GEN NMR

erre ene a

0 1
  C      522.153     996.683     540.616
  O      523.262     995.819     540.706
  P      524.658     996.201     539.979
  C      525.794     993.982     540.646
  O      525.313     994.794     539.554
  C      525.277     992.535     540.477
  O      525.572     992.090     539.143
  C      525.870     991.502     541.430
  O      525.262     991.450     542.726
  C      525.565     990.219     540.651
  O      524.169     989.866     540.863
  C      525.782     990.648     539.214
  N      528.672     987.215     536.763
  C      527.360     987.231     537.057
  N      526.654     988.179     537.716
  C      527.468     989.208     538.091
  C      528.831     989.310     537.840
  C      529.441     988.255     537.167
  N      530.809     988.223     536.852
  N      529.320     990.493     538.350
  C      528.276     991.090     538.893
  N      527.128     990.337     538.736
  O      525.554     997.120     540.764
  O      524.201     996.808     538.561
  H      524.020     989.054     540.355
  H      524.939     997.327     538.177
  H      526.752     986.379     536.703
  H      528.289     992.065     539.403
  H      525.066     990.187     538.504
  H      526.175     989.382     540.991
  H      526.957     991.640     541.496
  H      524.164     992.600     540.585
  H      525.425     994.406     541.581
  H      531.111     987.481     536.229
  H      531.338     989.077     536.972
  H      526.894     994.002     540.641
  P      526.211     991.847     543.979
  C      524.106     992.484     545.401
  O      525.271     991.724     545.265
  O      526.953     993.132     543.848
  O      527.164     990.552     544.074
  H      526.739     989.714     544.332
  H      523.513     992.132     546.290
  H      523.487     992.419     544.518
  H      524.382     993.549     545.574
  H      521.330     996.264     541.156
  H      521.880     996.807     539.589
  H      522.407     997.634     541.035

 3  4  5  6  7  8  9  10  11  12  22  25  29  30  31  32 0
 6-311+G(2d,p)
 ****
 33  36  37 0
 6-311+G(2d,p)
 ****
 1  2  13  14  15  16  17  18  19  20  21  23  24  26 0
 3-21G
 ****
 27  28  34  35  38  39  40  41  42  43  44  45  46  47  48 0
 3-21G
 ****


