%nproc=1
%NoSave
%Mem=1900MB
#P OB98/GEN NMR

erre ene a

0 1
  C      236.470     264.229     -25.429
  O      235.840     265.421     -25.853
  H      235.814     263.716     -24.715
  H      237.410     264.466     -24.925
  H      236.660     263.560     -26.274
  P      236.445     266.216     -27.101
  C      237.433     268.036     -25.545
  O      237.702     267.045     -26.531
  C      238.603     269.010     -25.443
  O      239.801     268.260     -25.079
  C      238.897     269.754     -26.764
  O      239.361     271.070     -26.455
  C      240.033     268.921     -27.337
  O      240.774     269.627     -28.299
  C      240.808     268.577     -26.062
  N      241.743     267.482     -26.282
  C      243.084     267.821     -26.430
  O      243.508     268.972     -26.387
  N      243.939     266.781     -26.698
  C      243.573     265.489     -26.944
  O      244.378     264.617     -27.258
  C      242.130     265.200     -26.826
  C      241.302     266.190     -26.502
  O      235.472     267.036     -27.894
  O      237.161     265.092     -27.986
  H      241.165     270.423     -27.896
  H      237.272     265.404     -28.906
  H      244.922     267.009     -26.797
  H      241.811     264.186     -27.025
  H      240.232     266.013     -26.429
  H      241.364     269.455     -25.690
  H      239.643     268.017     -27.811
  H      238.034     269.807     -27.428
  H      238.408     269.720     -24.632
  H      237.286     267.523     -24.585
  H      236.511     268.568     -25.807
  P      238.345     272.316     -26.285
  C      239.259     273.573     -28.331
  O      238.102     273.039     -27.701
  O      238.711     273.245     -25.180
  O      236.935     271.621     -25.977
  H      236.507     272.090     -25.234
  H      238.982     274.027     -29.259
  H      239.961     272.786     -28.514
  H      239.705     274.308     -27.694

 6  7  8  9  10  11  12  13  14  15  16  26  31  32  33  34  35 0
 6-311+G(2d,p)
 ****
 36  37 0
 6-311+G(2d,p)
 ****
 1  2  3  4  5  17  18  19  20  21  22  23  24  25 0
 3-21G
 ****
 27  28  29  30  38  39  40  41  42  43  44  45 0
 3-21G
 ****


