%nproc=1
%NoSave
%Mem=1900MB
#P OB98/GEN NMR

erre ene a

0 1
  C       15.667      14.461     -51.789
  O       16.811      14.113     -52.542
  H       15.876      14.281     -50.732
  H       14.812      13.849     -52.089
  H       15.436      15.520     -51.928
  P       16.691      14.253     -54.135
  C       16.390      16.801     -54.384
  O       17.296      15.706     -54.456
  C       16.934      17.882     -53.451
  O       17.874      17.267     -52.530
  C       17.674      19.007     -54.182
  O       17.426      20.243     -53.510
  C       19.135      18.629     -54.009
  O       20.004      19.750     -54.140
  C       19.113      17.990     -52.622
  N       22.841      16.732     -49.391
  C       21.761      17.532     -49.259
  N       20.800      17.792     -50.170
  C       21.006      17.082     -51.294
  C       22.058      16.230     -51.575
  C       23.017      16.070     -50.559
  N       24.139      15.286     -50.695
  N       21.941      15.726     -52.855
  C       20.831      16.258     -53.335
  N       20.245      17.100     -52.432
  O       15.339      13.987     -54.707
  O       17.854      13.277     -54.642
  H       19.938      20.290     -53.325
  H       18.683      13.421     -54.147
  H       21.659      18.035     -48.301
  H       20.425      16.079     -54.325
  H       19.144      18.734     -51.815
  H       19.421      17.894     -54.770
  H       17.394      19.094     -55.231
  H       16.108      18.276     -52.846
  H       15.415      16.459     -54.019
  H       24.775      15.226     -49.915
  H       24.288      14.779     -51.555
  H       16.261      17.199     -55.396
  P       16.999      21.526     -54.370
  C       14.431      21.355     -54.250
  O       15.586      22.064     -53.826
  O       17.085      21.370     -55.851
  O       18.016      22.654     -53.853
  H       18.328      23.177     -54.617
  H       13.559      21.806     -53.824
  H       14.499      20.337     -53.928
  H       14.364      21.388     -55.317

 6  7  8  9  10  11  12  13  14  15  25  28  32  33  34  35 0
 6-311+G(2d,p)
 ****
 36  39  40 0
 6-311+G(2d,p)
 ****
 1  2  3  4  5  16  17  18  19  20  21  22  23  24 0
 3-21G
 ****
 26  27  29  30  31  37  38  41  42  43  44  45  46  47 0
 3-21G
 ****
 48 0
 3-21G
 ****


