%nproc=1
%NoSave
%Mem=1900MB
#P OB98/GEN NMR

erre ene a

0 1
  C     1967.317     -64.699    1009.440
  O     1967.390     -64.709    1008.000
  P     1967.343     -63.279    1007.250
  C     1968.691     -64.020    1005.166
  O     1968.641     -63.139    1006.294
  C     1970.080     -64.002    1004.500
  O     1970.386     -62.651    1004.019
  C     1971.195     -64.395    1005.507
  O     1972.274     -65.054    1004.811
  C     1971.734     -63.000    1005.932
  O     1973.060     -63.111    1006.468
  C     1971.621     -62.226    1004.620
  N     1974.417     -57.930    1004.444
  C     1974.689     -59.181    1004.109
  N     1973.897     -60.275    1004.152
  C     1972.682     -59.964    1004.595
  C     1972.229     -58.707    1004.987
  C     1973.149     -57.648    1004.898
  N     1972.853     -56.351    1005.279
  N     1970.910     -58.754    1005.418
  C     1970.592     -60.044    1005.326
  N     1971.633     -60.796    1004.807
  O     1967.095     -62.096    1008.095
  O     1966.171     -63.497    1006.172
  H     1973.365     -62.233    1006.705
  H     1965.611     -62.683    1006.153
  H     1975.711     -59.368    1003.743
  H     1969.635     -60.446    1005.623
  H     1972.435     -62.491    1003.921
  H     1971.075     -62.598    1006.693
  H     1970.880     -64.981    1006.354
  H     1970.086     -64.675    1003.643
  H     1967.947     -63.736    1004.430
  H     1973.592     -55.688    1005.285
  H     1972.000     -56.148    1005.757
  H     1968.412     -65.044    1005.500
  P     1972.248     -66.664    1004.928
  C     1971.526     -67.046    1002.427
  O     1971.212     -67.158    1003.834
  O     1972.020     -67.178    1006.326
  O     1973.685     -67.048    1004.327
  H     1973.893     -66.650    1003.480
  H     1970.749     -67.572    1001.856
  H     1972.494     -67.527    1002.239
  H     1971.539     -65.997    1002.151
  H     1967.358     -65.704    1009.806
  H     1966.398     -64.245    1009.747
  H     1968.140     -64.141    1009.835

 3  4  5  6  7  8  9  10  11  12  22  25  29  30  31  32 0
 6-311+G(2d,p)
 ****
 33  36  37 0
 6-311+G(2d,p)
 ****
 1  2  13  14  15  16  17  18  19  20  21  23  24  26 0
 3-21G
 ****
 27  28  34  35  38  39  40  41  42  43  44  45  46  47  48 0
 3-21G
 ****


