%nproc=1
%NoSave
%Mem=1900MB
#P OB98/GEN NMR

erre ene a

0 1
  C       41.844      34.897     -49.194
  O       42.553      33.844     -48.574
  P       43.542      32.913     -49.427
  C       42.900      30.440     -49.776
  O       42.602      31.796     -50.098
  C       42.288      30.055     -48.429
  O       40.923      30.508     -48.344
  C       42.246      28.555     -48.170
  O       43.524      28.076     -47.801
  C       41.196      28.476     -47.071
  O       41.765      28.756     -45.784
  C       40.209      29.591     -47.485
  N       39.014      29.065     -48.130
  C       37.828      29.166     -47.394
  O       37.838      29.645     -46.260
  N       36.667      28.675     -47.945
  C       36.697      28.114     -49.113
  N       35.518      27.637     -49.599
  C       37.933      27.959     -49.907
  C       39.042      28.451     -49.360
  O       44.727      32.393     -48.685
  O       43.931      33.845     -50.673
  H       42.052      29.692     -45.810
  H       44.568      34.554     -50.408
  H       37.910      27.474     -50.872
  H       39.994      28.377     -49.873
  H       39.896      30.172     -46.606
  H       40.737      27.483     -47.011
  H       41.881      28.036     -49.065
  H       42.863      30.558     -47.639
  H       34.701      27.735     -49.010
  H       43.986      30.329     -49.725
  H       35.436      27.151     -50.479
  H       42.524      29.788     -50.573
  P       43.807      26.500     -47.763
  C       44.430      25.552     -45.461
  O       43.378      25.962     -46.315
  O       45.163      26.081     -48.224
  O       42.673      25.897     -48.721
  H       43.074      25.222     -49.301
  H       44.057      25.532     -44.433
  H       45.275      26.245     -45.519
  H       44.757      24.548     -45.740
  H       41.242      35.399     -48.466
  H       41.216      34.499     -49.964
  H       42.537      35.590     -49.622

 3  4  5  6  7  8  9  10  11  12  13  23  27  28  29  30  32 0
 6-311+G(2d,p)
 ****
 34  35 0
 6-311+G(2d,p)
 ****
 1  2  14  15  16  17  18  19  20  21  22  24  25  26 0
 3-21G
 ****
 31  33  36  37  38  39  40  41  42  43  44  45  46 0
 3-21G
 ****


