%nproc=1
%NoSave
%Mem=1900MB
#P OB98/GEN NMR

erre ene a

0 1
  C     -133.828      27.975     -54.497
  O     -134.619      27.796     -53.334
  P     -134.784      26.301     -52.768
  C     -137.041      26.068     -54.100
  O     -135.755      25.549     -53.799
  C     -138.090      24.955     -54.021
  O     -137.626      23.793     -54.747
  C     -138.385      24.455     -52.614
  O     -139.227      25.354     -51.902
  C     -139.010      23.099     -52.905
  O     -140.388      23.249     -53.278
  C     -138.181      22.622     -54.116
  N     -137.135      21.666     -53.765
  C     -136.696      20.831     -54.789
  O     -137.142      20.875     -55.935
  N     -135.729      19.918     -54.442
  C     -135.221      19.721     -53.192
  O     -134.390      18.863     -52.930
  C     -135.748      20.610     -52.145
  C     -136.663      21.524     -52.473
  O     -135.692      26.576     -51.477
  O     -133.479      25.629     -52.498
  H     -136.236      27.377     -51.579
  H     -140.753      22.346     -53.365
  H     -135.376      19.317     -55.175
  H     -135.374      20.479     -51.136
  H     -137.073      22.180     -51.714
  H     -138.837      22.155     -54.864
  H     -138.974      22.420     -52.043
  H     -137.449      24.319     -52.063
  H     -139.010      25.312     -54.505
  H     -137.031      26.491     -55.106
  H     -137.282      26.866     -53.391
  P     -138.711      25.822     -50.453
  C     -140.221      24.316     -48.941
  O     -138.939      24.580     -49.467
  O     -139.851      26.871     -50.043
  O     -137.329      26.389     -50.460
  H     -140.746      26.560     -50.269
  H     -140.258      23.276     -48.611
  H     -141.002      24.475     -49.689
  H     -140.404      24.967     -48.084
  H     -133.807      29.013     -54.758
  H     -134.249      27.413     -55.305
  H     -132.832      27.634     -54.307

 3  4  5  6  7  8  9  10  11  12  13  24  28  29  30  31  32 0
 6-311+G(2d,p)
 ****
 33  34 0
 6-311+G(2d,p)
 ****
 1  2  14  15  16  17  18  19  20  21  22  23  25  26  27 0
 3-21G
 ****
 35  36  37  38  39  40  41  42  43  44  45 0
 3-21G
 ****


