%nproc=1
%NoSave
%Mem=1900MB
#P OB98/GEN NMR

erre ene a

0 1
  C      340.186    -179.441     -66.408
  O      341.270    -179.981     -65.667
  P      340.959    -181.142     -64.609
  C      339.476    -181.423     -62.493
  O      339.815    -180.615     -63.612
  C      338.151    -180.971     -61.872
  O      337.150    -180.801     -62.918
  C      337.580    -181.959     -60.853
  O      336.899    -181.236     -59.818
  C      336.528    -182.717     -61.646
  O      335.542    -183.290     -60.791
  C      336.016    -181.610     -62.564
  N      331.548    -182.499     -64.766
  C      331.846    -181.707     -63.677
  N      330.800    -181.142     -63.033
  N      333.062    -181.473     -63.254
  C      334.008    -182.109     -63.988
  C      333.841    -182.902     -65.097
  C      332.493    -183.159     -65.544
  O      332.152    -183.875     -66.487
  N      335.048    -183.341     -65.592
  C      335.940    -182.845     -64.761
  N      335.362    -182.119     -63.755
  O      342.280    -181.154     -63.700
  O      340.717    -182.485     -65.212
  H      335.227    -182.577     -60.207
  H      342.827    -181.928     -63.915
  H      330.595    -182.653     -65.045
  H      337.011    -182.995     -64.832
  H      335.299    -180.958     -62.044
  H      336.999    -183.528     -62.219
  H      329.831    -181.339     -63.267
  H      338.327    -182.626     -60.397
  H      330.979    -180.593     -62.204
  H      338.302    -179.985     -61.413
  H      340.266    -181.351     -61.747
  H      339.407    -182.471     -62.815
  P      337.067    -181.813     -58.327
  C      336.150    -183.918     -57.088
  O      336.161    -183.136     -58.265
  O      336.254    -180.760     -57.430
  O      338.485    -181.972     -57.883
  H      336.595    -180.760     -56.515
  H      335.140    -183.910     -56.671
  H      336.844    -183.540     -56.333
  H      336.422    -184.948     -57.339
  H      340.549    -178.681     -67.068
  H      339.470    -179.017     -65.735
  H      339.722    -180.218     -66.979

 3  4  5  6  7  8  9  10  11  12  23  26  30  31 0
 6-311+G(2d,p)
 ****
 33  35  36  37  38 0
 6-311+G(2d,p)
 ****
 1  2  13  14  15  16  17  18  19  20  21  22  24  25 0
 3-21G
 ****
 27  28  29  32  34  39  40  41  42  43  44  45  46  47  48  49 0
 3-21G
 ****


