%nproc=1
%NoSave
%Mem=1900MB
#P OB98/GEN NMR

erre ene a

0 1
  C      -66.495      30.866     100.803
  O      -66.433      32.252     100.495
  P      -67.586      32.852      99.551
  C      -65.677      32.896      97.794
  O      -67.057      32.656      98.049
  C      -65.111      31.828      96.868
  O      -65.451      30.521      97.366
  C      -65.647      31.873      95.446
  O      -64.988      32.856      94.661
  C      -65.312      30.471      94.961
  O      -63.935      30.418      94.544
  C      -65.522      29.625      96.228
  N      -67.818      25.121      95.960
  C      -66.475      25.435      95.900
  N      -65.621      24.396      95.778
  N      -66.011      26.655      95.953
  C      -66.978      27.588      96.116
  C      -68.342      27.402      96.187
  C      -68.845      26.051      96.075
  O      -70.027      25.719      96.057
  N      -68.998      28.592      96.370
  C      -68.036      29.490      96.446
  N      -66.795      28.934      96.267
  O      -67.458      34.430      99.783
  O      -68.962      32.357      99.837
  H      -63.800      31.146      93.909
  H      -68.313      34.864      99.596
  H      -68.120      24.164      95.932
  H      -68.194      30.543      96.628
  H      -64.721      28.888      96.351
  H      -65.917      30.159      94.104
  H      -65.907      23.433      95.864
  H      -66.733      32.016      95.438
  H      -64.630      24.604      95.769
  H      -64.017      31.918      96.871
  H      -65.127      32.876      98.740
  H      -65.569      33.890      97.348
  P      -65.919      33.976      93.981
  C      -64.752      33.366      91.741
  O      -65.970      33.591      92.427
  O      -65.007      35.288      94.027
  O      -67.233      34.174      94.656
  H      -65.567      36.088      94.029
  H      -64.017      32.873      92.383
  H      -64.350      34.321      91.392
  H      -64.948      32.726      90.878
  H      -65.672      30.604     101.435
  H      -66.445      30.297      99.898
  H      -67.414      30.654     101.308

 3  4  5  6  7  8  9  10  11  12  23  26  30  31  33  0
 6-311+G(2d,p)
 ****
 35  36  37  38 0
 6-311+G(2d,p)
 ****
 1  2  13  14  15  16  17  18  19  20  21  22  24  25  27  28  29 0
 3-21G
 ****
 32  34  39  40  41  42  43  44  45  46  47  48  49 0
 3-21G
 ****


