%nproc=1
%NoSave
%Mem=1900MB
#P OB98/GEN NMR

erre ene a

0 1
  C       69.547     677.487    -623.698
  O       68.561     678.226    -624.408
  P       68.216     679.729    -623.985
  C       68.198     680.668    -626.377
  O       67.421     680.398    -625.225
  C       67.321     680.800    -627.623
  O       66.854     679.489    -628.024
  C       66.067     681.687    -627.437
  O       65.842     682.347    -628.688
  C       64.971     680.672    -627.174
  O       63.667     681.186    -627.435
  C       65.410     679.554    -628.130
  N       62.436     675.698    -629.748
  C       62.785     676.874    -630.317
  N       63.567     677.863    -629.810
  C       64.007     677.544    -628.575
  C       63.717     676.396    -627.862
  C       62.919     675.425    -628.486
  N       62.575     674.209    -627.932
  N       64.310     676.454    -626.601
  C       64.928     677.613    -626.580
  N       64.830     678.277    -627.767
  O       69.365     680.536    -623.488
  O       67.086     679.572    -622.874
  H       63.663     681.589    -628.319
  H       67.467     679.770    -621.981
  H       62.383     677.040    -631.309
  H       65.468     678.024    -625.735
  H       65.150     679.769    -629.180
  H       64.997     680.355    -626.134
  H       66.166     682.430    -626.630
  H       67.944     681.187    -628.453
  H       68.893     679.834    -626.526
  H       62.114     673.534    -628.520
  H       63.118     673.877    -627.129
  H       68.789     681.583    -626.225
  P       65.330     683.869    -628.721
  C       66.191     684.550    -631.019
  O       65.052     684.222    -630.259
  O       66.166     684.840    -627.963
  O       63.834     683.765    -628.095
  H       63.543     684.658    -627.817
  H       66.481     685.594    -630.833
  H       65.947     684.435    -632.091
  H       67.031     683.910    -630.779
  H       69.636     676.510    -624.125
  H       69.259     677.403    -622.671
  H       70.488     677.992    -623.764

 3  4  5  6  7  8  9  10  11  12  22  25  29  30  31  32 0
 6-311+G(2d,p)
 ****
 33  36  37 0
 6-311+G(2d,p)
 ****
 1  2  13  14  15  16  17  18  19  20  21  23  24  26 0
 3-21G
 ****
 27  28  34  35  38  39  40  41  42  43  44  45  46  47  48 0
 3-21G
 ****


