%nproc=1
%NoSave
%Mem=1900MB
#P OB98/GEN NMR

erre ene a

0 1
  C       10.497       6.454      12.483
  O       10.590       5.317      13.312
  P        9.383       4.885      14.270
  C        9.190       2.318      14.160
  O        9.750       3.430      14.849
  C        9.215       1.072      15.052
  O       10.563       0.507      15.027
  C        8.858       1.380      16.520
  O        7.818       0.563      17.058
  C       10.202       1.273      17.221
  O       10.107       1.049      18.615
  C       10.900       0.191      16.392
  N       12.343       0.157      16.616
  C       12.818      -0.754      17.553
  O       12.111      -1.531      18.188
  N       14.163      -0.714      17.799
  C       15.041       0.201      17.302
  O       16.215       0.240      17.642
  C       14.473       1.165      16.347
  C       13.178       1.089      16.033
  O        8.022       4.979      13.667
  O        9.590       5.815      15.557
  H       11.012       1.040      18.979
  H       10.444       5.703      16.009
  H       14.520      -1.370      18.476
  H       15.144       1.910      15.944
  H       12.732       1.786      15.332
  H       10.495      -0.799      16.606
  H       10.725       2.228      17.087
  H        8.473       2.401      16.625
  H        8.525       0.340      14.623
  H        9.781       2.127      13.262
  H        8.170       2.555      13.838
  P        6.679       1.068      18.063
  C        4.863       0.172      16.434
  O        5.344       0.242      17.760
  O        6.504       2.548      18.132
  O        7.150       0.490      19.480
  H        6.833       1.075      20.193
  H        3.777       0.047      16.462
  H        5.301      -0.698      15.938
  H        5.102       1.077      15.870
  H       11.405       6.565      11.927
  H       10.339       7.323      13.086
  H        9.677       6.336      11.806

 3  4  5  6  7  8  9  10  11  12  13  23  28  29  30  31  32 0
 6-311+G(2d,p)
 ****
 33  34 0
 6-311+G(2d,p)
 ****
 1  2  14  15  16  17  18  19  20  21  22  24  25  26  27 0
 3-21G
 ****
 35  36  37  38  39  40  41  42  43  44  45 0
 3-21G
 ****


