%nproc=1
%NoSave
%Mem=1900MB
#P OB98/GEN NMR

erre ene a

0 1
  C      224.911    -895.780    -163.396
  O      225.418    -896.960    -163.999
  P      224.662    -897.810    -165.127
  C      226.817    -898.000    -166.607
  O      225.455    -897.610    -166.499
  C      227.335    -898.050    -168.054
  O      226.615    -899.060    -168.786
  C      227.088    -896.720    -168.769
  O      227.954    -895.630    -168.606
  C      226.819    -897.120    -170.219
  O      228.000    -897.030    -171.011
  C      226.348    -898.580    -170.104
  N      222.772    -899.740    -173.600
  C      224.156    -899.650    -173.747
  N      224.648    -899.860    -174.988
  N      224.977    -899.390    -172.761
  C      224.333    -899.110    -171.590
  C      222.989    -899.150    -171.316
  C      222.085    -899.540    -172.402
  O      220.878    -899.630    -172.309
  N      222.715    -898.800    -170.016
  C      223.924    -898.530    -169.503
  N      224.943    -898.720    -170.424
  O      223.181    -897.650    -165.175
  O      224.981    -899.350    -164.723
  H      227.757    -897.310    -171.924
  H      224.179    -899.870    -164.985
  H      222.196    -900.000    -174.359
  H      224.080    -898.220    -168.483
  H      226.882    -899.210    -170.799
  H      226.088    -896.430    -170.675
  H      224.077    -899.950    -175.802
  H      226.099    -896.330    -168.390
  H      225.603    -899.580    -175.165
  H      228.403    -898.350    -168.065
  H      226.907    -898.980    -166.116
  H      227.443    -897.300    -165.999
  P      227.796    -894.390    -167.580
  C      229.603    -895.260    -166.009
  O      228.265    -894.900    -166.153
  O      226.197    -894.240    -167.428
  O      228.411    -893.100    -168.050
  H      225.986    -893.370    -167.035
  H      229.728    -895.850    -165.096
  H      230.224    -894.360    -165.918
  H      229.949    -895.860    -166.867
  H      225.615    -895.416    -162.677
  H      223.984    -895.999    -162.908
  H      224.751    -895.036    -164.148

 3  4  5  6  7  8  9  10  11  12  23  26  30  31 0
 6-311+G(2d,p)
 ****
 33  35  36  37  38 0
 6-311+G(2d,p)
 ****
 1  2  13  14  15  16  17  18  19  20  21  22  24  25 0
 3-21G
 ****
 27  28  29  32  34  39  40  41  42  43  44  45  46  47  48  49 0
 3-21G
 ****


