%nproc=1
%NoSave
%Mem=1900MB
#P OB98/GEN NMR

erre ene a

0 1
  C     -149.448     384.550     241.419
  O     -149.509     383.174     241.730
  H     -148.856     385.056     242.185
  H     -150.455     384.975     241.419
  H     -148.975     384.716     240.447
  P     -150.066     382.154     240.626
  C     -149.209     379.845     239.851
  O     -149.402     380.727     240.949
  C     -148.345     378.648     240.259
  O     -146.991     379.115     240.522
  C     -148.837     377.928     241.524
  O     -148.477     376.544     241.393
  C     -148.002     378.589     242.601
  O     -147.986     377.828     243.786
  C     -146.663     378.736     241.875
  N     -145.779     379.707     242.518
  C     -144.728     379.190     243.266
  O     -144.542     377.981     243.422
  N     -143.912     380.106     243.873
  C     -144.080     381.461     243.852
  O     -143.337     382.233     244.442
  C     -145.237     381.947     243.084
  C     -146.020     381.066     242.458
  O     -149.931     382.598     239.207
  O     -151.597     381.923     241.036
  H     -147.313     378.177     244.408
  H     -152.134     381.738     240.241
  H     -143.137     379.746     244.408
  H     -145.407     383.019     243.057
  H     -146.878     381.397     241.884
  H     -146.132     377.774     241.835
  H     -148.410     379.572     242.854
  H     -149.910     378.029     241.688
  H     -148.284     377.957     239.410
  H     -148.711     380.406     239.052
  H     -150.182     379.498     239.489
  P     -149.580     375.378     241.343
  C     -149.498     373.063     240.212
  O     -148.839     373.977     241.090
  O     -150.717     375.646     240.407
  O     -150.108     375.250     242.849
  H     -151.030     374.924     242.851
  H     -148.914     372.171     240.121
  H     -149.613     373.514     239.248
  H     -150.461     372.819     240.609

 6  7  8  9  10  11  12  13  14  15  16  26  31  32  33  34  35 0
 6-311+G(2d,p)
 ****
 36  37 0
 6-311+G(2d,p)
 ****
 1  2  3  4  5  17  18  19  20  21  22  23  24  25 0
 3-21G
 ****
 27  28  29  30  38  39  40  41  42  43  44  45 0
 3-21G
 ****


