%nproc=1
%NoSave
%Mem=1900MB
#P OB98/GEN NMR

erre ene a

0 1
  C        7.171    -165.790     198.654
  O        7.191    -165.105     199.894
  H        8.193    -166.075     198.393
  H        6.778    -165.129     197.879
  H        6.556    -166.694     198.724
  P        5.781    -164.890     200.628
  C        5.175    -163.136     198.809
  O        5.262    -163.430     200.198
  C        4.815    -161.666     198.601
  O        4.709    -161.368     197.189
  C        3.487    -161.252     199.231
  O        3.639    -160.940     200.610
  C        3.175    -159.997     198.424
  O        3.984    -158.896     198.897
  C        3.628    -160.406     197.015
  N       -0.385    -159.517     194.037
  C        0.397    -158.634     194.767
  N        0.051    -157.328     194.687
  N        1.419    -158.994     195.499
  C        1.629    -160.338     195.493
  C        0.921    -161.310     194.823
  C       -0.195    -160.893     194.002
  O       -0.905    -161.638     193.329
  N        1.433    -162.554     195.062
  C        2.436    -162.342     195.893
  N        2.592    -161.010     196.194
  O        6.206    -164.702     202.162
  O        4.802    -166.002     200.467
  H        3.462    -158.427     199.574
  H        6.027    -165.534     202.642
  H       -1.167    -159.186     193.497
  H        3.076    -163.111     196.302
  H        4.034    -159.562     196.449
  H        2.133    -159.688     198.512
  H       -0.737    -156.984     194.161
  H        2.699    -161.999     199.066
  H        0.611    -156.663     195.214
  H        5.640    -161.060     198.998
  H        4.402    -163.768     198.363
  H        6.137    -163.354     198.341
  P        2.784    -161.792     201.674
  C        1.464    -159.725     202.508
  O        2.346    -160.779     202.844
  O        3.901    -162.709     202.369
  O        1.687    -162.621     201.095
  H        3.766    -163.642     202.117
  H        1.263    -159.137     203.379
  H        0.548    -160.132     202.133
  H        1.914    -159.109     201.758

 6  7  8  9  10  11  12  13  14  15  26  29  33  34 0
 6-311+G(2d,p)
 ****
 36  38  39  40  41 0
 6-311+G(2d,p)
 ****
 1  2  3  4  5  16  17  18  19  20  21  22  23  24  25 0
 3-21G
 ****
 27  28  30  31  32  35  37  42  43  44  45  46  47 0
 3-21G
 ****
 48  49 0
 3-21G
 ****


