%nproc=1
%NoSave
%Mem=1900MB
#P OB98/GEN NMR

erre ene a

0 1
  C      -18.467      -8.260      -9.617
  O      -17.184      -8.818      -9.827
  H      -18.365      -7.180      -9.488
  H      -18.912      -8.683      -8.712
  H      -19.115      -8.455     -10.476
  P      -17.140     -10.356     -10.269
  C      -16.723     -11.288      -7.853
  O      -16.248     -11.140      -9.184
  C      -16.020     -10.296      -6.932
  O      -16.508     -10.415      -5.582
  C      -14.524     -10.525      -6.795
  O      -13.808     -10.149      -7.950
  C      -14.217      -9.658      -5.581
  O      -14.011      -8.288      -5.947
  C      -15.503      -9.811      -4.734
  N      -15.263     -10.579      -3.526
  C      -14.559      -9.906      -2.519
  O      -14.206      -8.739      -2.686
  N      -14.242     -10.587      -1.372
  C      -14.573     -11.834      -1.251
  N      -14.201     -12.460      -0.103
  C      -15.314     -12.580      -2.289
  C      -15.624     -11.898      -3.391
  O      -16.196     -10.318     -11.559
  O      -18.475     -10.977     -10.507
  H      -14.833      -7.997      -6.393
  H      -15.369      -9.828     -11.424
  H      -15.579     -13.615      -2.134
  H      -16.167     -12.367      -4.203
  H      -15.891      -8.827      -4.442
  H      -13.311      -9.989      -5.069
  H      -14.325     -11.570      -6.526
  H      -16.237      -9.282      -7.294
  H      -13.646     -11.927       0.557
  H      -16.566     -12.312      -7.500
  H      -14.333     -13.445       0.068
  H      -17.802     -11.103      -7.863
  P      -12.795     -11.159      -8.667
  C      -10.830     -10.631      -7.087
  O      -11.314     -10.580      -8.424
  O      -13.105     -11.472     -10.092
  O      -12.813     -12.437      -7.701
  H      -12.533     -12.261      -6.786
  H       -9.842     -10.221      -7.049
  H      -10.807     -11.648      -6.755
  H      -11.477     -10.062      -6.452

 6  7  8  9  10  11  12  13  14  15  16  26  30  31  32  33  35 0
 6-311+G(2d,p)
 ****
 37  38 0
 6-311+G(2d,p)
 ****
 1  2  3  4  5  17  18  19  20  21  22  23  24  25 0
 3-21G
 ****
 27  28  29  34  36  39  40  41  42  43  44  45  46 0
 3-21G
 ****


