%nproc=1
%NoSave
%Mem=1900MB
#P OB98/GEN NMR

erre ene a

0 1
  C       54.260     663.366     362.263
  O       53.335     662.542     361.575
  H       53.946     664.411     362.150
  H       55.262     663.258     361.839
  H       54.275     663.119     363.327
  P       53.584     660.958     361.586
  C       51.104     660.608     362.226
  O       52.464     660.346     362.557
  C       50.210     660.352     363.434
  O       50.456     661.337     364.456
  C       48.716     660.411     363.122
  O       48.279     659.186     362.548
  C       48.155     660.657     364.513
  O       48.167     659.429     365.268
  C       49.182     661.647     365.093
  N       45.812     665.364     365.840
  C       45.753     664.025     366.191
  N       44.611     663.615     366.785
  N       46.709     663.169     365.950
  C       47.762     663.709     365.294
  C       47.930     665.011     364.883
  C       46.885     665.964     365.194
  O       46.907     667.162     364.920
  N       49.100     665.173     364.177
  C       49.654     663.977     364.198
  N       48.875     663.049     364.851
  O       54.977     660.507     361.911
  O       53.116     660.481     360.132
  H       49.091     659.114     365.274
  H       53.864     660.465     359.509
  H       45.030     665.970     366.034
  H       50.614     663.729     363.763
  H       49.313     661.523     366.177
  H       47.122     661.019     364.505
  H       43.754     664.150     366.724
  H       48.466     661.270     362.491
  H       44.526     662.629     366.999
  H       50.483     659.375     363.853
  H       50.832     659.943     361.398
  H       50.989     661.646     361.892
  P       47.623     659.144     361.077
  C       49.194     657.364     360.052
  O       48.829     658.743     360.102
  O       46.896     660.386     360.684
  O       46.722     657.829     361.084
  H       45.797     657.983     361.403
  H       50.006     657.235     359.368
  H       48.356     656.785     359.724
  H       49.493     657.039     361.026

 6  7  8  9  10  11  12  13  14  15  26  29  33  34 0
 6-311+G(2d,p)
 ****
 36  38  39  40  41 0
 6-311+G(2d,p)
 ****
 1  2  3  4  5  16  17  18  19  20  21  22  23  24  25 0
 3-21G
 ****
 27  28  30  31  32  35  37  42  43  44  45  46  47 0
 3-21G
 ****
 48  49 0
 3-21G
 ****


