%nproc=1
%NoSave
%Mem=1900MB
#P OB98/GEN NMR

erre ene a

0 1
  C     -506.937     623.923     341.989
  O     -506.673     622.644     341.453
  H     -507.803     624.351     341.476
  H     -506.073     624.573     341.815
  H     -507.151     623.868     343.058
  P     -505.720     621.675     342.299
  C     -507.444     620.453     343.809
  O     -506.597     620.379     342.673
  C     -508.773     619.743     343.526
  O     -509.587     620.611     342.676
  C     -508.631     618.389     342.817
  O     -509.632     617.496     343.319
  C     -508.977     618.731     341.380
  O     -509.424     617.594     340.648
  C     -510.052     619.792     341.585
  N     -513.054     620.202     337.582
  C     -513.195     619.454     338.736
  N     -514.265     618.642     338.816
  N     -512.339     619.498     339.729
  C     -511.322     620.369     339.524
  C     -511.071     621.157     338.433
  C     -512.012     621.095     337.329
  O     -511.936     621.713     336.280
  N     -509.899     621.860     338.596
  C     -509.436     621.475     339.768
  N     -510.261     620.572     340.378
  O     -505.584     622.450     343.700
  O     -504.387     621.391     341.689
  H     -508.715     616.919     340.659
  H     -504.774     622.997     343.694
  H     -513.725     620.123     336.840
  H     -508.505     621.800     340.216
  H     -511.016     619.364     341.870
  H     -508.101     619.148     340.865
  H     -514.977     618.573     338.103
  H     -507.646     617.934     342.924
  H     -514.399     618.116     339.668
  H     -509.318     619.632     344.477
  H     -507.638     621.504     344.042
  H     -506.940     619.992     344.666
  P     -509.223     615.971     343.580
  C     -510.631     615.255     345.652
  O     -510.470     615.205     344.239
  O     -508.178     616.078     344.793
  O     -508.608     615.295     342.399
  H     -507.487     615.394     344.705
  H     -511.502     614.700     345.932
  H     -510.742     616.273     345.963
  H     -509.770     614.830     346.124

 6  7  8  9  10  11  12  13  14  15  26  29  33  34 0
 6-311+G(2d,p)
 ****
 36  38  39  40  41 0
 6-311+G(2d,p)
 ****
 1  2  3  4  5  16  17  18  19  20  21  22  23  24  25 0
 3-21G
 ****
 27  28  30  31  32  35  37  42  43  44  45  46  47 0
 3-21G
 ****
 48  49 0
 3-21G
 ****


