%nproc=1
%NoSave
%Mem=1900MB
#P OB98/GEN NMR

erre ene a

0 1
  C     -176.029    -947.695     355.150
  O     -177.215    -947.077     355.663
  P     -177.052    -945.645     356.369
  C     -178.336    -944.382     354.489
  O     -177.135    -944.520     355.234
  C     -178.365    -943.047     353.752
  O     -177.137    -942.791     353.036
  C     -179.456    -942.958     352.699
  O     -180.730    -942.772     353.303
  C     -178.974    -941.774     351.879
  O     -179.306    -940.527     352.547
  C     -177.447    -941.965     351.890
  N     -173.377    -942.519     348.845
  C     -173.563    -941.785     349.978
  N     -174.680    -941.692     350.709
  C     -175.662    -942.459     350.216
  C     -175.613    -943.245     349.074
  C     -174.403    -943.261     348.378
  N     -174.207    -943.984     347.216
  N     -176.837    -943.883     348.863
  C     -177.611    -943.473     349.840
  N     -176.949    -942.617     350.681
  O     -175.514    -945.640     356.811
  O     -177.971    -945.445     357.540
  H     -178.906    -940.578     353.448
  H     -175.438    -945.722     357.776
  H     -172.703    -941.218     350.313
  H     -178.648    -943.739     349.974
  H     -176.908    -941.020     352.010
  H     -179.420    -941.737     350.886
  H     -179.466    -943.858     352.079
  H     -178.500    -942.252     354.505
  H     -179.202    -944.461     355.160
  H     -173.321    -943.874     346.723
  H     -174.997    -944.469     346.800
  H     -178.404    -945.225     353.779
  P     -181.606    -944.082     353.649
  C     -181.433    -943.550     356.163
  O     -181.119    -944.488     355.138
  O     -180.875    -945.195     352.746
  O     -183.068    -943.928     353.450
  H     -179.907    -945.142     352.803
  H     -181.084    -943.964     357.119
  H     -182.513    -943.416     356.238
  H     -180.928    -942.589     355.977
  H     -176.280    -948.637     354.709
  H     -175.333    -947.849     355.948
  H     -175.588    -947.061     354.409

 3  4  5  6  7  8  9  10  11  12  22  25  29  30  31  32 0
 6-311+G(2d,p)
 ****
 33  36  37 0
 6-311+G(2d,p)
 ****
 1  2  13  14  15  16  17  18  19  20  21  23  24  26 0
 3-21G
 ****
 27  28  34  35  38  39  40  41  42  43  44  45  46  47  48 0
 3-21G
 ****


