%nproc=1
%NoSave
%Mem=1900MB
#P OB98/GEN NMR

erre ene a

0 1
  C     -166.045     643.149    -153.118
  O     -164.865     642.637    -152.543
  H     -166.438     642.414    -153.825
  H     -165.831     644.075    -153.658
  H     -166.798     643.334    -152.348
  P     -164.129     643.554    -151.445
  C     -164.122     641.558    -149.773
  O     -164.520     642.899    -150.030
  C     -163.957     641.327    -148.271
  O     -162.825     642.093    -147.794
  C     -165.182     641.746    -147.454
  O     -165.447     640.758    -146.458
  C     -164.768     643.058    -146.812
  O     -165.476     643.313    -145.601
  C     -163.254     642.884    -146.668
  N     -162.557     644.163    -146.621
  C     -162.327     644.712    -145.352
  O     -162.716     644.124    -144.345
  N     -161.710     645.932    -145.258
  C     -161.411     646.582    -146.334
  N     -160.817     647.798    -146.176
  C     -161.672     646.069    -147.696
  C     -162.238     644.863    -147.760
  O     -164.973     644.910    -151.482
  O     -162.660     643.744    -151.659
  H     -165.530     642.473    -145.098
  H     -164.508     645.640    -151.012
  H     -161.416     646.654    -148.564
  H     -162.471     644.409    -148.717
  H     -163.017     642.320    -145.752
  H     -164.987     643.883    -147.507
  H     -166.073     641.878    -148.067
  H     -163.712     640.270    -148.106
  H     -160.658     648.123    -145.230
  H     -163.168     641.367    -150.283
  H     -160.567     648.407    -146.944
  H     -164.881     640.875    -150.167
  P     -166.996     640.424    -146.197
  C     -166.851     637.893    -145.665
  O     -167.238     638.885    -146.602
  O     -167.754     641.246    -147.344
  O     -167.463     640.796    -144.830
  H     -168.106     642.081    -146.990
  H     -167.068     636.923    -146.062
  H     -167.392     638.034    -144.753
  H     -165.801     637.973    -145.473

 6  7  8  9  10  11  12  13  14  15  16  26  30  31  32  33  35 0
 6-311+G(2d,p)
 ****
 37  38 0
 6-311+G(2d,p)
 ****
 1  2  3  4  5  17  18  19  20  21  22  23  24  25 0
 3-21G
 ****
 27  28  29  34  36  39  40  41  42  43  44  45  46 0
 3-21G
 ****


