%nproc=1
%NoSave
%Mem=1900MB
#P OB98/GEN NMR

erre ene a

0 1
  C      234.818    -198.262     -33.139
  O      234.722    -199.689     -33.030
  P      235.443    -200.691     -34.055
  C      237.317    -201.435     -32.445
  O      236.200    -201.839     -33.233
  C      238.103    -202.640     -31.922
  O      239.427    -202.244     -31.507
  C      237.490    -203.326     -30.709
  O      236.376    -204.121     -31.078
  C      238.688    -204.107     -30.175
  O      238.855    -205.345     -30.891
  C      239.855    -203.144     -30.467
  N      240.293    -202.422     -29.282
  C      241.303    -203.016     -28.521
  O      241.745    -204.126     -28.829
  N      241.776    -202.350     -27.413
  C      241.235    -201.230     -27.058
  N      241.750    -200.612     -25.958
  C      240.108    -200.611     -27.777
  C      239.692    -201.252     -28.869
  O      236.298    -200.007     -35.072
  O      234.244    -201.480     -34.775
  H      239.697    -205.729     -30.587
  H      234.517    -201.711     -35.682
  H      239.664    -199.689     -27.429
  H      238.871    -200.863     -29.463
  H      240.711    -203.692     -30.878
  H      238.589    -204.363     -29.116
  H      237.192    -202.572     -29.969
  H      238.214    -203.354     -32.751
  H      242.526    -201.061     -25.492
  H      236.944    -200.851     -31.598
  H      241.401    -199.735     -25.597
  H      237.963    -200.795     -33.056
  P      234.919    -203.764     -30.516
  C      233.396    -202.468     -32.125
  O      233.913    -203.736     -31.760
  O      234.851    -202.574     -29.612
  O      234.476    -205.096     -29.739
  H      233.901    -204.848     -28.990
  H      233.076    -202.503     -33.170
  H      234.150    -201.682     -32.007
  H      232.530    -202.234     -31.496
  H      234.259    -197.806     -32.349
  H      234.423    -197.949     -34.083
  H      235.844    -197.967     -33.066

 3  4  5  6  7  8  9  10  11  12  13  23  27  28  29  30  32 0
 6-311+G(2d,p)
 ****
 34  35 0
 6-311+G(2d,p)
 ****
 1  2  14  15  16  17  18  19  20  21  22  24  25  26 0
 3-21G
 ****
 31  33  36  37  38  39  40  41  42  43  44  45  46 0
 3-21G
 ****


