%nproc=1
%NoSave
%Mem=1900MB
#P OB98/GEN NMR

erre ene a

0 1
  C      340.691    -177.183     170.955
  O      339.355    -176.773     170.734
  H      341.190    -176.426     171.565
  H      341.218    -177.271     170.002
  H      340.714    -178.138     171.487
  P      338.388    -177.836     170.011
  C      339.253    -177.694     167.536
  O      339.228    -178.399     168.766
  C      340.305    -178.288     166.601
  O      339.853    -179.591     166.156
  C      340.578    -177.440     165.358
  O      341.971    -177.517     165.050
  C      339.767    -178.124     164.272
  O      340.279    -177.846     162.968
  C      339.846    -179.594     164.713
  N      338.739    -180.392     164.189
  C      338.838    -180.809     162.857
  O      339.814    -180.483     162.178
  N      337.814    -181.541     162.313
  C      336.751    -181.781     163.014
  N      335.763    -182.495     162.413
  C      336.579    -181.315     164.406
  C      337.603    -180.644     164.926
  O      337.300    -176.876     169.337
  O      337.823    -178.871     170.926
  H      341.240    -178.045     162.971
  H      337.681    -176.078     168.937
  H      335.666    -181.527     164.944
  H      337.565    -180.272     165.943
  H      340.787    -180.047     164.378
  H      338.730    -177.776     164.306
  H      340.285    -176.395     165.476
  H      341.225    -178.455     167.175
  H      335.912    -182.779     161.453
  H      339.474    -176.637     167.708
  H      334.872    -182.693     162.844
  H      338.259    -177.767     167.083
  P      342.973    -176.429     165.670
  C      342.779    -174.375     164.123
  O      342.403    -174.959     165.360
  O      344.418    -176.624     165.357
  O      342.712    -176.569     167.250
  H      343.573    -176.470     167.704
  H      342.338    -173.404     164.038
  H      342.438    -174.993     163.319
  H      343.845    -174.287     164.079

 6  7  8  9  10  11  12  13  14  15  16  26  30  31  32  33  35 0
 6-311+G(2d,p)
 ****
 37  38 0
 6-311+G(2d,p)
 ****
 1  2  3  4  5  17  18  19  20  21  22  23  24  25 0
 3-21G
 ****
 27  28  29  34  36  39  40  41  42  43  44  45  46 0
 3-21G
 ****


