%nproc=1
%NoSave
%Mem=1900MB
#P OB98/GEN NMR

erre ene a

0 1
  C      616.613    -130.169     108.885
  O      616.119    -129.016     108.239
  H      616.791    -130.941     108.135
  H      615.871    -130.536     109.599
  H      617.550    -129.961     109.405
  P      616.109    -127.629     109.036
  C      618.674    -127.431     108.778
  O      617.572    -127.438     109.672
  C      619.953    -126.967     109.477
  O      619.760    -125.631     110.003
  C      620.266    -127.872     110.674
  O      621.663    -127.935     110.947
  C      619.564    -127.169     111.826
  O      620.093    -127.524     113.098
  C      619.775    -125.706     111.451
  N      617.354    -124.027     115.603
  C      618.260    -125.060     115.471
  N      618.536    -125.758     116.606
  N      618.827    -125.396     114.347
  C      618.399    -124.662     113.293
  C      617.492    -123.625     113.282
  C      616.899    -123.239     114.551
  O      616.079    -122.344     114.717
  N      617.293    -123.140     112.016
  C      618.071    -123.881     111.254
  N      618.774    -124.812     111.985
  O      615.209    -127.935     110.322
  O      615.592    -126.446     108.275
  H      619.626    -126.991     113.773
  H      614.814    -127.114     110.666
  H      616.959    -123.798     116.501
  H      618.174    -123.782     110.180
  H      620.754    -125.353     111.789
  H      618.510    -127.467     111.816
  H      617.997    -125.648     117.445
  H      619.886    -128.890     110.529
  H      618.957    -126.681     116.476
  H      620.778    -126.911     108.760
  H      618.422    -126.742     107.967
  H      618.809    -128.423     108.340
  P      622.575    -128.820     109.970
  C      623.224    -126.653     108.648
  O      622.780    -127.994     108.614
  O      621.610    -130.031     109.546
  O      623.841    -129.303     110.592
  H      621.876    -130.849     110.013
  H      623.298    -126.277     107.649
  H      624.184    -126.607     109.119
  H      622.526    -126.060     109.201

 6  7  8  9  10  11  12  13  14  15  26  29  33  34 0
 6-311+G(2d,p)
 ****
 36  38  39  40  41 0
 6-311+G(2d,p)
 ****
 1  2  3  4  5  16  17  18  19  20  21  22  23  24  25 0
 3-21G
 ****
 27  28  30  31  32  35  37  42  43  44  45  46  47 0
 3-21G
 ****
 48  49 0
 3-21G
 ****


