%nproc=1
%NoSave
%Mem=1900MB
#P OB98/GEN NMR

erre ene a

0 1
  C     -450.207    -286.231     373.304
  O     -451.014    -285.307     372.572
  P     -451.876    -285.798     371.310
  C     -451.236    -284.376     369.280
  O     -452.163    -284.537     370.350
  C     -451.644    -283.282     368.279
  O     -453.015    -283.461     367.849
  C     -451.523    -281.846     368.810
  O     -451.164    -281.041     367.685
  C     -452.945    -281.549     369.258
  O     -453.197    -280.154     369.397
  C     -453.752    -282.267     368.169
  N     -455.117    -282.559     368.589
  C     -456.064    -281.546     368.440
  O     -455.721    -280.440     368.025
  N     -457.362    -281.797     368.810
  C     -457.666    -282.920     369.372
  N     -458.965    -283.097     369.737
  C     -456.679    -283.993     369.625
  C     -455.443    -283.748     369.203
  O     -453.088    -286.602     371.656
  O     -450.841    -286.678     370.456
  H     -454.146    -280.037     369.611
  H     -451.330    -287.375     369.978
  H     -456.974    -284.907     370.121
  H     -454.649    -284.472     369.339
  H     -453.798    -281.652     367.254
  H     -453.129    -282.018     370.238
  H     -450.796    -281.743     369.619
  H     -451.014    -283.400     367.392
  H     -459.603    -282.329     369.571
  H     -451.146    -285.327     368.749
  H     -459.286    -283.887     370.280
  H     -450.248    -284.142     369.696
  P     -449.649    -280.619     367.393
  C     -449.957    -278.115     367.864
  O     -449.685    -279.101     366.884
  O     -448.890    -281.552     366.513
  O     -448.970    -280.499     368.846
  H     -448.006    -280.521     368.743
  H     -449.744    -277.128     367.447
  H     -449.332    -278.273     368.751
  H     -451.016    -278.163     368.152
  H     -449.713    -285.718     374.103
  H     -449.477    -286.662     372.651
  H     -450.827    -287.005     373.706

 3  4  5  6  7  8  9  10  11  12  13  23  27  28  29  30  32 0
 6-311+G(2d,p)
 ****
 34  35 0
 6-311+G(2d,p)
 ****
 1  2  14  15  16  17  18  19  20  21  22  24  25  26 0
 3-21G
 ****
 31  33  36  37  38  39  40  41  42  43  44  45  46 0
 3-21G
 ****


