%nproc=1
%NoSave
%Mem=1900MB
#P OB98/GEN NMR

erre ene a

0 1
  C      225.877       6.201     172.776
  O      226.678       5.292     172.053
  P      226.545       3.714     172.300
  C      227.195       2.117     174.215
  O      227.419       3.387     173.608
  C      228.380       1.741     175.101
  O      229.579       1.529     174.309
  C      228.777       2.823     176.097
  O      227.857       3.131     177.123
  C      230.156       2.341     176.522
  O      230.069       1.318     177.514
  C      230.705       1.763     175.191
  N      231.698       2.645     174.579
  C      232.920       2.058     174.264
  O      233.184       0.875     174.477
  N      233.859       2.894     173.719
  C      233.717       4.235     173.510
  O      234.619       4.935     173.060
  C      232.408       4.801     173.877
  C      231.471       3.993     174.388
  O      226.857       2.856     171.116
  O      225.047       3.550     172.845
  H      229.458       0.634     177.176
  H      224.856       4.038     173.666
  H      234.757       2.493     173.497
  H      232.258       5.859     173.711
  H      230.501       4.390     174.668
  H      231.176       0.787     175.366
  H      230.757       3.155     176.947
  H      228.923       3.760     175.542
  H      228.151       0.799     175.600
  H      227.086       1.363     173.430
  H      226.262       2.145     174.787
  P      227.706       4.592     177.761
  C      229.334       6.141     179.057
  O      228.910       4.820     178.796
  O      226.334       4.995     178.200
  O      228.153       5.528     176.531
  H      227.666       6.374     176.578
  H      230.184       6.104     179.742
  H      228.527       6.716     179.528
  H      229.653       6.633     178.134
  H      226.110       7.201     172.473
  H      226.069       6.092     173.823
  H      224.844       6.000     172.580

 3  4  5  6  7  8  9  10  11  12  13  23  28  29  30  31  32 0
 6-311+G(2d,p)
 ****
 33  34 0
 6-311+G(2d,p)
 ****
 1  2  14  15  16  17  18  19  20  21  22  24  25  26  27 0
 3-21G
 ****
 35  36  37  38  39  40  41  42  43  44  45 0
 3-21G
 ****


