%nproc=1
%NoSave
%Mem=1900MB
#P OB98/GEN NMR

erre ene a

0 1
  C     1877.330     -14.558    1278.194
  O     1878.667     -14.128    1278.022
  H     1877.208     -15.553    1277.732
  H     1876.652     -13.861    1277.677
  H     1877.077     -14.619    1279.260
  P     1879.031     -12.641    1278.536
  C     1880.343     -13.370    1280.660
  O     1879.179     -12.727    1280.129
  C     1881.399     -12.323    1281.039
  O     1880.783     -11.356    1281.979
  C     1882.589     -12.876    1281.771
  O     1883.543     -13.478    1280.891
  C     1883.145     -11.603    1282.429
  O     1883.973     -10.860    1281.515
  C     1881.860     -10.807    1282.785
  N     1881.565     -10.871    1284.215
  C     1880.988      -9.751    1284.764
  O     1880.749      -8.734    1284.086
  N     1880.777      -9.801    1286.111
  C     1881.074     -10.848    1286.943
  O     1880.895     -10.785    1288.159
  C     1881.685     -12.001    1286.312
  C     1881.944     -11.995    1284.983
  O     1877.660     -11.840    1278.340
  O     1880.166     -11.998    1277.833
  H     1877.734     -11.253    1277.548
  H     1884.078      -9.967    1281.915
  H     1880.346      -8.993    1286.528
  H     1881.967     -12.827    1286.927
  H     1882.388     -12.845    1284.512
  H     1881.969      -9.757    1282.503
  H     1883.735     -11.853    1283.295
  H     1882.284     -13.590    1282.555
  H     1881.671     -11.774    1280.133
  H     1880.806     -14.037    1279.916
  H     1880.069     -13.959    1281.531
  P     1884.591     -14.507    1281.504
  C     1883.006     -16.534    1280.821
  O     1883.747     -15.864    1281.849
  O     1884.856     -13.836    1282.949
  O     1885.805     -14.708    1280.641
  H     1884.089     -13.306    1283.255
  H     1882.523     -17.395    1281.233
  H     1883.673     -16.838    1280.041
  H     1882.269     -15.869    1280.421

 6  7  8  9  10  11  12  13  14  15  16  27  31  32  33  34  35 0
 6-311+G(2d,p)
 ****
 36  37 0
 6-311+G(2d,p)
 ****
 1  2  3  4  5  17  18  19  20  21  22  23  24  25 0
 3-21G
 ****
 26  28  29  30  38  39  40  41  42  43  44  45 0
 3-21G
 ****


