%nproc=1
%NoSave
%Mem=1900MB
#P OB98/GEN NMR

erre ene a

0 1
  C       39.804     289.429     151.866
  O       39.941     288.966     150.539
  H       39.746     290.519     151.854
  H       40.677     289.132     152.455
  H       38.894     289.037     152.331
  P       39.757     287.403     150.240
  C       40.895     285.249     151.086
  O       40.995     286.659     150.940
  C       42.165     284.677     151.722
  O       43.254     284.753     150.757
  C       42.621     285.422     152.986
  O       43.270     284.467     153.838
  C       43.636     286.396     152.423
  O       44.473     286.916     153.429
  C       44.310     285.525     151.360
  N       45.052     286.312     150.376
  C       45.959     287.237     150.873
  O       46.129     287.433     152.079
  N       46.639     287.974     149.945
  C       46.458     287.915     148.594
  O       47.076     288.623     147.806
  C       45.453     286.947     148.124
  C       44.808     286.196     149.021
  O       39.539     287.040     148.809
  O       38.523     286.966     151.163
  H       44.939     287.716     153.104
  H       38.036     286.231     150.744
  H       47.310     288.642     150.292
  H       45.278     286.886     147.057
  H       44.061     285.478     148.707
  H       45.013     284.821     151.828
  H       43.129     287.246     151.949
  H       41.801     285.912     153.517
  H       42.003     283.611     151.931
  H       40.753     284.815     150.090
  H       40.028     285.006     151.708
  P       42.477     283.661     154.978
  C       41.460     284.271     157.266
  O       41.749     284.719     155.944
  O       43.302     282.644     155.698
  O       41.259     282.962     154.207
  H       41.001     282.145     154.677
  H       40.979     285.056     157.811
  H       42.371     284.001     157.758
  H       40.813     283.420     157.221

 6  7  8  9  10  11  12  13  14  15  16  26  31  32  33  34  35 0
 6-311+G(2d,p)
 ****
 36  37 0
 6-311+G(2d,p)
 ****
 1  2  3  4  5  17  18  19  20  21  22  23  24  25 0
 3-21G
 ****
 27  28  29  30  38  39  40  41  42  43  44  45 0
 3-21G
 ****


