%nproc=1
%NoSave
%Mem=1900MB
#P OB98/GEN NMR

erre ene a

0 1
  C     -148.816     -76.392    -310.757
  O     -149.177     -75.441    -309.771
  P     -149.041     -73.886    -310.149
  C     -151.523     -73.152    -309.899
  O     -150.450     -73.452    -310.779
  C     -152.854     -73.217    -310.648
  O     -153.280     -74.586    -310.812
  C     -154.006     -72.522    -309.935
  O     -153.999     -71.119    -310.141
  C     -155.201     -73.155    -310.626
  O     -155.427     -72.522    -311.897
  C     -154.728     -74.601    -310.825
  N     -158.363     -77.899    -309.594
  C     -158.076     -77.316    -310.815
  N     -158.911     -77.610    -311.834
  N     -157.058     -76.521    -311.016
  C     -156.314     -76.309    -309.902
  C     -156.499     -76.834    -308.641
  C     -157.635     -77.703    -308.431
  O     -157.973     -78.205    -307.364
  N     -155.534     -76.397    -307.774
  C     -154.763     -75.615    -308.502
  N     -155.220     -75.495    -309.791
  O     -148.061     -73.897    -311.416
  O     -148.530     -73.017    -309.050
  H     -155.486     -71.560    -311.725
  H     -147.694     -73.006    -311.563
  H     -159.163     -78.502    -309.490
  H     -153.880     -75.101    -308.139
  H     -155.041     -75.003    -311.794
  H     -156.127     -73.053    -310.050
  H     -159.745     -78.167    -311.727
  H     -154.025     -72.776    -308.868
  H     -158.759     -77.147    -312.721
  H     -152.703     -72.787    -311.646
  H     -151.384     -72.148    -309.489
  H     -151.520     -73.868    -309.071
  P     -153.784     -70.198    -308.842
  C     -152.844     -68.048    -309.960
  O     -152.572     -69.219    -309.213
  O     -153.146     -71.214    -307.781
  O     -155.026     -69.548    -308.331
  H     -153.343     -70.923    -306.870
  H     -151.981     -67.379    -309.894
  H     -153.720     -67.526    -309.570
  H     -153.007     -68.307    -311.010
  H     -148.956     -77.379    -310.369
  H     -147.789     -76.257    -311.024
  H     -149.430     -76.259    -311.623

 3  4  5  6  7  8  9  10  11  12  23  26  30  31 0
 6-311+G(2d,p)
 ****
 33  35  36  37  38 0
 6-311+G(2d,p)
 ****
 1  2  13  14  15  16  17  18  19  20  21  22  24  25 0
 3-21G
 ****
 27  28  29  32  34  39  40  41  42  43  44  45  46  47  48  49 0
 3-21G
 ****


