%nproc=1
%NoSave
%Mem=1900MB
#P OB98/GEN NMR

erre ene a

0 1
  C     -753.606     682.820     200.266
  O     -754.801     682.922     201.056
  P     -755.385     681.603     201.773
  C     -756.042     681.906     204.285
  O     -755.019     681.661     203.334
  C     -755.947     683.340     204.803
  O     -756.115     684.286     203.720
  C     -757.011     683.712     205.822
  O     -756.730     683.180     207.102
  C     -756.956     685.237     205.774
  O     -755.890     685.737     206.604
  C     -756.656     685.499     204.287
  N     -757.826     685.958     203.546
  C     -758.118     687.309     203.631
  O     -757.485     688.099     204.326
  N     -759.207     687.732     202.908
  C     -760.044     686.939     202.181
  O     -761.010     687.372     201.570
  C     -759.733     685.502     202.198
  C     -758.660     685.084     202.874
  O     -754.382     680.468     201.238
  O     -756.798     681.256     201.436
  H     -755.099     685.205     206.385
  H     -754.844     679.610     201.219
  H     -759.415     688.717     202.928
  H     -760.387     684.833     201.655
  H     -758.414     684.026     202.893
  H     -755.866     686.250     204.186
  H     -757.881     685.703     206.128
  H     -757.997     683.385     205.472
  H     -754.942     683.488     205.225
  H     -755.927     681.214     205.124
  H     -757.016     681.727     203.817
  P     -757.430     681.781     207.473
  C     -755.365     680.453     208.365
  O     -756.279     680.674     207.314
  O     -758.378     681.572     206.198
  O     -758.148     681.805     208.783
  H     -757.988     681.931     205.386
  H     -755.828     680.603     209.341
  H     -754.514     681.131     208.254
  H     -755.004     679.420     208.302
  H     -753.360     683.781     199.866
  H     -753.766     682.130     199.464
  H     -752.801     682.472     200.880

 3  4  5  6  7  8  9  10  11  12  13  23  28  29  30  31  32 0
 6-311+G(2d,p)
 ****
 33  34 0
 6-311+G(2d,p)
 ****
 1  2  14  15  16  17  18  19  20  21  22  24  25  26 0
 3-21G
 ****
 27  35  36  37  38  39  40  41  42  43  44  45 0
 3-21G
 ****


