%nproc=1
%NoSave
%Mem=1900MB
#P OB98/GEN NMR

erre ene a

0 1
  C      179.164    -311.055    -120.763
  O      178.390    -310.077    -120.105
  H      178.519    -311.607    -121.452
  H      179.574    -311.752    -120.029
  H      179.980    -310.602    -121.334
  P      179.136    -308.850    -119.403
  C      176.868    -307.858    -118.665
  O      178.169    -308.266    -118.259
  C      175.959    -307.593    -117.465
  O      175.589    -308.848    -116.853
  C      176.645    -306.757    -116.381
  O      176.538    -305.354    -116.567
  C      175.903    -307.202    -115.124
  O      174.724    -306.408    -114.902
  C      175.520    -308.655    -115.431
  N      175.889    -312.434    -112.003
  C      174.818    -311.595    -112.261
  N      173.732    -311.770    -111.477
  N      174.833    -310.671    -113.185
  C      176.023    -310.551    -113.815
  C      177.159    -311.309    -113.634
  C      177.110    -312.379    -112.662
  O      178.023    -313.160    -112.411
  N      178.191    -310.868    -114.430
  C      177.702    -309.797    -115.023
  N      176.368    -309.611    -114.743
  O      179.084    -307.695    -120.517
  O      180.549    -309.110    -118.978
  H      174.186    -306.852    -114.219
  H      179.871    -307.129    -120.435
  H      175.809    -313.145    -111.303
  H      178.255    -309.150    -115.692
  H      174.489    -308.868    -115.127
  H      176.531    -307.082    -114.236
  H      173.698    -312.406    -110.698
  H      177.694    -307.043    -116.277
  H      173.002    -311.055    -111.505
  H      175.032    -307.121    -117.811
  H      176.463    -308.670    -119.269
  H      176.928    -306.971    -119.301
  P      177.396    -304.340    -115.678
  C      176.178    -302.310    -116.806
  O      176.633    -302.942    -115.630
  O      178.668    -304.039    -116.600
  O      177.792    -304.845    -114.329
  H      179.429    -304.583    -116.328
  H      175.696    -301.389    -116.552
  H      175.483    -302.950    -117.309
  H      177.010    -302.112    -117.449

 6  7  8  9  10  11  12  13  14  15  26  29  33  34 0
 6-311+G(2d,p)
 ****
 36  38  39  40  41 0
 6-311+G(2d,p)
 ****
 1  2  3  4  5  16  17  18  19  20  21  22  23  24  25 0
 3-21G
 ****
 27  28  30  31  32  35  37  42  43  44  45  46  47 0
 3-21G
 ****
 48  49 0
 3-21G
 ****


