%nproc=1
%NoSave
%Mem=1900MB
#P OB98/GEN NMR

erre ene a

0 1
  C      689.410     309.400    -267.822
  O      688.810     310.551    -267.225
  P      689.560     311.276    -266.015
  C      687.652     311.969    -264.429
  O      688.598     312.406    -265.404
  C      686.540     313.012    -264.239
  O      687.088     314.235    -263.657
  C      685.871     313.411    -265.566
  O      684.482     313.723    -265.348
  C      686.583     314.701    -265.936
  O      685.812     315.481    -266.852
  C      686.777     315.335    -264.550
  N      687.769     320.345    -264.202
  C      686.607     319.656    -264.123
  N      686.426     318.321    -264.203
  C      687.600     317.679    -264.380
  C      688.859     318.251    -264.461
  C      688.923     319.656    -264.387
  N      690.105     320.361    -264.488
  N      689.833     317.279    -264.637
  C      689.160     316.148    -264.698
  N      687.817     316.333    -264.506
  O      690.957     311.737    -266.298
  O      689.556     310.160    -264.863
  H      685.638     314.928    -267.634
  H      690.423     310.140    -264.417
  H      685.712     320.252    -263.981
  H      689.592     315.174    -264.889
  H      685.849     315.799    -264.187
  H      687.544     314.473    -266.402
  H      685.950     312.651    -266.355
  H      685.801     312.635    -263.528
  H      688.159     311.788    -263.479
  H      690.031     321.370    -264.539
  H      690.940     319.872    -264.769
  H      687.238     311.003    -264.739
  P      683.426     312.691    -265.987
  C      681.512     314.446    -265.622
  O      681.983     313.134    -265.426
  O      683.800     311.251    -265.785
  O      683.409     313.137    -267.528
  H      683.275     314.086    -267.673
  H      680.482     314.504    -265.285
  H      681.559     314.718    -266.679
  H      682.114     315.149    -265.039
  H      688.783     309.040    -268.611
  H      689.528     308.635    -267.083
  H      690.368     309.663    -268.219

 3  4  5  6  7  8  9  10  11  12  22  25  29  30  31  32 0
 6-311+G(2d,p)
 ****
 33  36  37 0
 6-311+G(2d,p)
 ****
 1  2  13  14  15  16  17  18  19  20  21  23  24  26 0
 3-21G
 ****
 27  28  34  35  38  39  40  41  42  43  44  45  46  47  48 0
 3-21G
 ****


