%nproc=1
%NoSave
%Mem=1900MB
#P OB98/GEN NMR

erre ene a

0 1
  C      612.812     312.041     613.147
  O      613.407     311.668     611.920
  H      611.988     311.358     613.366
  H      612.414     313.060     613.072
  H      613.545     311.989     613.958
  P      614.774     312.407     611.536
  C      615.410     314.664     610.363
  O      614.394     313.741     610.715
  C      615.306     315.003     608.873
  O      615.406     313.817     608.067
  C      613.972     315.617     608.459
  O      613.814     316.945     608.898
  C      614.057     315.487     606.940
  O      614.781     316.575     606.362
  C      614.842     314.166     606.775
  N      614.003     313.094     606.245
  C      614.152     312.852     604.856
  O      614.961     313.513     604.211
  N      613.352     311.911     604.273
  C      612.458     311.290     604.998
  N      611.672     310.385     604.338
  C      612.278     311.512     606.438
  C      613.082     312.422     606.995
  O      615.376     311.446     610.406
  O      615.696     312.652     612.685
  H      614.951     316.328     605.432
  H      614.747     311.211     609.715
  H      611.534     310.953     606.982
  H      612.999     312.656     608.053
  H      615.687     314.304     606.089
  H      613.072     315.479     606.482
  H      613.147     314.981     608.810
  H      616.138     315.678     608.612
  H      611.804     310.302     603.327
  H      616.397     314.261     610.590
  H      610.893     309.898     604.767
  H      615.273     315.562     610.975
  P      612.398     317.666     608.896
  C      611.529     319.893     607.908
  O      612.456     318.820     607.774
  O      611.906     318.149     610.224
  O      611.440     316.571     608.202
  H      611.702     316.315     607.307
  H      611.669     320.588     607.106
  H      611.690     320.389     608.842
  H      610.531     319.508     607.876

 6  7  8  9  10  11  12  13  14  15  16  26  30  31  32  33  35 0
 6-311+G(2d,p)
 ****
 37  38 0
 6-311+G(2d,p)
 ****
 1  2  3  4  5  17  18  19  20  21  22  23  24  25 0
 3-21G
 ****
 27  28  29  34  36  39  40  41  42  43  44  45  46 0
 3-21G
 ****


