%nproc=1
%NoSave
%Mem=1900MB
#P OB98/GEN NMR

erre ene a

0 1
  C       28.609     -23.462     -66.586
  O       27.534     -23.596     -67.494
  H       28.581     -24.267     -65.847
  H       29.550     -23.527     -67.139
  H       28.560     -22.493     -66.081
  P       26.055     -23.565     -66.873
  C       25.884     -26.120     -67.332
  O       25.774     -25.068     -66.384
  C       24.722     -27.090     -67.146
  O       24.728     -27.619     -65.801
  C       23.351     -26.449     -67.332
  O       22.977     -26.350     -68.695
  C       22.472     -27.441     -66.590
  O       22.268     -28.612     -67.401
  C       23.348     -27.780     -65.374
  N       23.011     -27.606     -60.269
  C       23.330     -28.607     -61.118
  N       23.418     -28.567     -62.463
  C       23.147     -27.335     -62.921
  C       22.814     -26.214     -62.177
  C       22.744     -26.383     -60.784
  N       22.389     -25.374     -59.917
  N       22.585     -25.132     -63.004
  C       22.795     -25.590     -64.221
  N       23.105     -26.923     -64.225
  O       25.107     -23.421     -68.154
  O       25.803     -22.521     -65.838
  H       21.852     -28.314     -68.232
  H       24.204     -23.169     -67.882
  H       23.537     -29.567     -60.655
  H       22.725     -25.002     -65.128
  H       23.221     -28.816     -65.039
  H       21.485     -27.037     -66.355
  H       23.291     -25.476     -66.832
  H       24.861     -27.931     -67.835
  H       26.831     -26.646     -67.174
  H       22.222     -25.630     -58.957
  H       22.046     -24.505     -60.299
  H       25.867     -25.702     -68.343
  P       22.018     -25.131     -69.114
  C       19.984     -26.400     -68.114
  O       20.747     -25.199     -68.137
  O       21.428     -25.609     -70.521
  O       22.700     -23.806     -69.205
  H       21.260     -24.845     -71.105
  H       19.176     -26.296     -67.421
  H       20.609     -27.214     -67.813
  H       19.593     -26.593     -69.091

 6  7  8  9  10  11  12  13  14  15  25  28  32  33  34  35 0
 6-311+G(2d,p)
 ****
 36  39  40 0
 6-311+G(2d,p)
 ****
 1  2  3  4  5  16  17  18  19  20  21  22  23  24 0
 3-21G
 ****
 26  27  29  30  31  37  38  41  42  43  44  45  46  47 0
 3-21G
 ****
 48 0
 3-21G
 ****


