%nproc=1
%NoSave
%Mem=1900MB
#P OB98/GEN NMR

erre ene a

0 1
  C      627.309    -560.496    -113.912
  O      626.472    -561.654    -114.030
  P      625.471    -561.738    -115.278
  C      623.540    -562.863    -113.943
  O      624.444    -562.947    -115.032
  C      622.654    -564.111    -113.886
  O      623.314    -565.212    -113.231
  C      621.351    -563.905    -113.119
  O      620.368    -563.284    -113.922
  C      620.958    -565.340    -112.814
  O      620.345    -565.932    -113.974
  C      622.315    -566.000    -112.538
  N      621.269    -568.251    -108.055
  C      620.720    -568.385    -109.277
  N      621.036    -567.735    -110.426
  C      622.058    -566.882    -110.219
  C      622.712    -566.643    -109.026
  C      622.288    -567.372    -107.906
  N      622.859    -567.231    -106.655
  N      623.708    -565.695    -109.194
  C      623.652    -565.373    -110.471
  N      622.662    -566.069    -111.130
  O      626.407    -562.283    -116.454
  O      624.841    -560.430    -115.638
  H      619.938    -566.781    -113.683
  H      626.134    -561.893    -117.305
  H      619.908    -569.105    -109.356
  H      624.290    -564.665    -110.968
  H      622.376    -567.020    -112.938
  H      620.240    -565.415    -111.999
  H      621.535    -563.363    -112.179
  H      622.427    -564.410    -114.919
  H      622.918    -561.970    -114.037
  H      622.514    -567.808    -105.904
  H      623.633    -566.592    -106.542
  H      624.114    -562.744    -113.015
  P      619.634    -561.985    -113.320
  C      617.418    -562.976    -114.249
  O      618.258    -561.848    -114.118
  O      620.531    -560.781    -113.874
  O      619.535    -561.973    -111.828
  H      620.507    -560.035    -113.246
  H      616.418    -562.651    -114.544
  H      617.351    -563.523    -113.297
  H      617.812    -563.648    -115.026
  H      627.917    -560.583    -113.036
  H      626.698    -559.621    -113.836
  H      627.936    -560.420    -114.776

 3  4  5  6  7  8  9  10  11  12  22  25  29  30  31  32 0
 6-311+G(2d,p)
 ****
 33  36  37 0
 6-311+G(2d,p)
 ****
 1  2  13  14  15  16  17  18  19  20  21  23  24  26 0
 3-21G
 ****
 27  28  34  35  38  39  40  41  42  43  44  45  46  47  48 0
 3-21G
 ****


