%nproc=1
%NoSave
%Mem=1900MB
#P OB98/GEN NMR

erre ene a

0 1
  C      -28.544      71.984       2.615
  O      -27.688      72.415       1.577
  H      -28.931      70.993       2.361
  H      -29.385      72.674       2.726
  H      -27.990      71.918       3.555
  P      -27.102      73.906       1.706
  C      -25.161      72.560       2.813
  O      -25.928      73.754       2.794
  C      -23.964      72.723       3.742
  O      -22.911      73.469       3.090
  C      -24.261      73.489       5.029
  O      -24.934      72.711       6.003
  C      -22.846      73.833       5.459
  O      -22.205      72.661       5.995
  C      -22.221      74.244       4.109
  N      -22.342      75.678       3.834
  C      -21.279      76.488       4.249
  O      -20.303      76.003       4.816
  N      -21.363      77.844       4.043
  C      -22.404      78.347       3.456
  N      -22.431      79.696       3.281
  C      -23.539      77.531       2.991
  C      -23.444      76.221       3.209
  O      -28.238      74.682       2.522
  O      -26.696      74.563       0.431
  H      -22.770      72.344       6.723
  H      -27.912      75.577       2.786
  H      -24.392      77.996       2.518
  H      -24.240      75.556       2.894
  H      -21.160      73.969       4.066
  H      -22.803      74.599       6.233
  H      -24.804      74.418       4.827
  H      -23.570      71.723       3.958
  H      -21.665      80.235       3.664
  H      -24.821      72.354       1.792
  H      -23.255      80.194       2.974
  H      -25.776      71.723       3.158
  P      -25.767      73.500       7.127
  C      -27.652      74.106       5.437
  O      -26.678      74.573       6.363
  O      -24.655      74.400       7.840
  O      -26.491      72.626       8.103
  H      -24.847      74.504       8.792
  H      -28.172      74.941       5.016
  H      -28.348      73.470       5.942
  H      -27.168      73.557       4.657

 6  7  8  9  10  11  12  13  14  15  16  26  30  31  32  33  35 0
 6-311+G(2d,p)
 ****
 37  38 0
 6-311+G(2d,p)
 ****
 1  2  3  4  5  17  18  19  20  21  22  23  24  25 0
 3-21G
 ****
 27  28  29  34  36  39  40  41  42  43  44  45  46 0
 3-21G
 ****


