%nproc=1
%NoSave
%Mem=1900MB
#P OB98/GEN NMR

erre ene a

0 1
  C      -54.471     524.851     975.358
  O      -54.543     523.487     975.718
  H      -54.109     524.927     974.320
  H      -53.770     525.392     976.004
  H      -55.461     525.318     975.413
  P      -54.793     523.130     977.263
  C      -57.332     523.148     976.766
  O      -56.226     522.408     977.310
  C      -58.275     522.235     975.974
  O      -57.621     521.773     974.761
  C      -58.666     520.950     976.722
  O      -59.521     521.186     977.828
  C      -59.119     520.047     975.590
  O      -60.491     520.224     975.225
  C      -58.210     520.503     974.429
  N      -57.195     519.497     974.091
  C      -57.586     518.487     973.233
  O      -58.717     518.408     972.753
  N      -56.634     517.540     972.937
  C      -55.379     517.483     973.473
  O      -54.586     516.588     973.206
  C      -55.025     518.574     974.414
  C      -55.932     519.510     974.685
  O      -54.651     524.270     978.229
  O      -53.781     521.925     977.536
  H      -61.029     519.897     975.970
  H      -53.640     521.788     978.504
  H      -56.900     516.805     972.296
  H      -54.036     518.553     974.856
  H      -55.697     520.311     975.372
  H      -58.813     520.680     973.517
  H      -59.000     518.988     975.851
  H      -57.748     520.507     977.135
  H      -59.160     522.810     975.681
  H      -56.926     523.918     976.099
  H      -57.880     523.643     977.574
  P      -59.758     520.089     978.965
  C      -57.828     520.784     980.583
  O      -59.248     520.712     980.369
  O      -59.417     518.677     978.640
  O      -61.368     520.160     979.146
  H      -61.690     519.270     979.360
  H      -57.633     521.213     981.544
  H      -57.383     521.393     979.824
  H      -57.411     519.800     980.541

 6  7  8  9  10  11  12  13  14  15  16  26  31  32  33  34  35 0
 6-311+G(2d,p)
 ****
 36  37 0
 6-311+G(2d,p)
 ****
 1  2  3  4  5  17  18  19  20  21  22  23  24  25 0
 3-21G
 ****
 27  28  29  30  38  39  40  41  42  43  44  45 0
 3-21G
 ****


