%nproc=1
%NoSave
%Mem=1900MB
#P OB98/GEN NMR

erre ene a

0 1
  C      822.707     371.303    -213.604
  O      822.328     371.567    -212.268
  H      823.463     372.037    -213.904
  H      821.840     371.404    -214.272
  H      823.139     370.307    -213.682
  P      821.190     370.624    -211.646
  C      819.333     372.429    -211.501
  O      819.812     371.260    -212.164
  C      818.169     373.046    -212.266
  O      818.601     373.476    -213.575
  C      816.998     372.098    -212.504
  O      816.146     372.058    -211.366
  C      816.316     372.767    -213.684
  O      815.484     373.853    -213.212
  C      817.494     373.318    -214.503
  N      816.125     371.072    -218.901
  C      815.399     371.683    -217.957
  N      815.822     372.222    -216.782
  C      817.156     372.064    -216.647
  C      818.027     371.458    -217.534
  C      817.465     370.952    -218.724
  N      818.217     370.318    -219.698
  N      819.313     371.493    -217.058
  C      819.227     372.156    -215.918
  N      817.935     372.496    -215.611
  O      821.289     370.373    -210.178
  O      821.337     369.319    -212.568
  H      816.034     374.380    -212.600
  H      821.486     369.577    -213.494
  H      814.335     371.763    -218.155
  H      820.075     372.448    -215.308
  H      817.277     374.313    -214.917
  H      815.656     372.085    -214.239
  H      817.340     371.094    -212.804
  H      817.838     373.948    -211.718
  H      820.139     373.162    -211.405
  H      817.710     369.814    -220.412
  H      819.184     370.116    -219.482
  H      819.015     372.135    -210.499
  P      815.237     370.770    -211.055
  C      813.182     372.149    -211.756
  O      813.926     370.958    -211.958
  O      814.991     370.529    -209.607
  O      816.011     369.559    -211.767
  H      815.684     368.714    -211.415
  H      812.337     372.157    -212.412
  H      813.802     372.996    -211.962
  H      812.846     372.192    -210.741

 6  7  8  9  10  11  12  13  14  15  25  28  32  33  34  35 0
 6-311+G(2d,p)
 ****
 36  39  40 0
 6-311+G(2d,p)
 ****
 1  2  3  4  5  16  17  18  19  20  21  22  23  24 0
 3-21G
 ****
 26  27  29  30  31  37  38  41  42  43  44  45  46  47 0
 3-21G
 ****
 48 0
 3-21G
 ****


