%nproc=1
%NoSave
%Mem=1900MB
#P OB98/GEN NMR

erre ene a

0 1
  C     -194.049     259.292    -116.459
  O     -194.908     259.848    -117.458
  P     -194.290     260.819    -118.572
  C     -196.011     260.784    -120.491
  O     -195.489     261.506    -119.386
  C     -196.903     259.624    -120.020
  O     -197.927     260.125    -119.120
  C     -197.605     258.901    -121.179
  O     -197.434     257.485    -121.141
  C     -199.037     259.401    -121.092
  O     -199.969     258.514    -121.689
  C     -199.209     259.674    -119.592
  N     -200.271     260.651    -119.333
  C     -201.577     260.194    -119.440
  O     -201.864     259.055    -119.808
  N     -202.558     261.109    -119.168
  C     -202.362     262.429    -118.884
  O     -203.276     263.220    -118.693
  C     -200.959     262.871    -118.846
  C     -199.995     261.976    -119.069
  O     -193.207     260.233    -119.415
  O     -193.724     262.045    -117.699
  H     -199.958     257.668    -121.188
  H     -192.881     262.333    -118.100
  H     -203.512     260.789    -119.225
  H     -200.767     263.914    -118.647
  H     -198.956     262.275    -119.061
  H     -199.470     258.759    -119.054
  H     -199.103     260.351    -121.631
  H     -197.180     259.192    -122.145
  H     -196.264     258.929    -119.466
  H     -195.189     260.381    -121.082
  H     -196.554     261.470    -121.150
  P     -196.767     256.620    -122.310
  C     -196.817     254.305    -121.145
  O     -197.306     255.118    -122.192
  O     -195.288     256.748    -122.450
  O     -197.496     257.173    -123.626
  H     -196.844     257.243    -124.347
  H     -196.976     253.258    -121.413
  H     -197.371     254.522    -120.228
  H     -195.751     254.471    -120.978
  H     -194.622     258.672    -115.801
  H     -193.595     260.083    -115.899
  H     -193.288     258.705    -116.929

 3  4  5  6  7  8  9  10  11  12  13  23  28  29  30  31  32 0
 6-311+G(2d,p)
 ****
 33  34 0
 6-311+G(2d,p)
 ****
 1  2  14  15  16  17  18  19  20  21  22  24  25  26  27 0
 3-21G
 ****
 35  36  37  38  39  40  41  42  43  44  45 0
 3-21G
 ****


