%nproc=1
%NoSave
%Mem=1900MB
#P OB98/GEN NMR

erre ene a

0 1
  C      -89.922      41.340       3.808
  O      -89.367      42.619       4.037
  P      -90.135      43.710       4.921
  C      -90.641      45.009       2.770
  O      -91.177      44.471       3.973
  C      -90.770      46.531       2.733
  O      -92.160      46.892       2.527
  C      -90.287      47.232       4.011
  O      -89.641      48.445       3.609
  C      -91.580      47.536       4.744
  O      -91.437      48.594       5.681
  C      -92.515      47.826       3.566
  N      -93.920      47.712       3.928
  C      -94.605      48.899       4.188
  O      -93.992      49.970       4.234
  N      -95.960      48.842       4.402
  C      -96.536      47.687       4.536
  N      -97.889      47.674       4.679
  C      -95.792      46.412       4.515
  C      -94.511      46.492       4.166
  O      -89.254      44.610       5.723
  O      -91.086      42.844       5.877
  H      -90.929      43.105       6.804
  H      -92.273      48.690       6.183
  H      -96.293      45.485       4.756
  H      -93.887      45.609       4.097
  H      -92.333      48.834       3.168
  H      -91.913      46.644       5.288
  H      -89.589      46.624       4.592
  H      -90.207      46.899       1.868
  H      -98.370      48.566       4.647
  H      -91.196      44.585       1.931
  H      -98.447      46.845       4.471
  H      -89.594      44.708       2.664
  P      -88.215      48.802       4.266
  C      -89.125      50.535       5.969
  O      -88.476      49.294       5.766
  O      -87.853      50.177       3.519
  O      -87.119      47.808       4.058
  H      -86.885      50.292       3.517
  H      -89.157      50.740       7.043
  H      -90.151      50.491       5.594
  H      -88.580      51.341       5.476
  H      -89.256      40.766       3.198
  H      -90.863      41.444       3.309
  H      -90.067      40.842       4.744

 3  4  5  6  7  8  9  10  11  12  13  24  27  28  29  30  32 0
 6-311+G(2d,p)
 ****
 34  35 0
 6-311+G(2d,p)
 ****
 1  2  14  15  16  17  18  19  20  21  22  23  25  26 0
 3-21G
 ****
 31  33  36  37  38  39  40  41  42  43  44  45  46 0
 3-21G
 ****


