%nproc=1
%NoSave
%Mem=1900MB
#P OB98/GEN NMR

erre ene a

0 1
  C      -50.702     456.935     303.899
  O      -50.126     457.794     302.931
  H      -50.850     455.949     303.446
  H      -51.674     457.317     304.222
  H      -50.036     456.830     304.760
  P      -49.819     459.309     303.354
  C      -47.311     459.448     302.743
  O      -48.274     459.338     303.785
  C      -46.235     458.379     302.909
  O      -46.809     457.064     302.764
  C      -45.103     458.476     301.891
  O      -44.167     459.471     302.281
  C      -44.546     457.064     301.963
  O      -43.749     456.915     303.152
  C      -45.835     456.228     302.077
  N      -45.658     452.775     298.367
  C      -44.867     452.907     299.495
  N      -43.861     452.018     299.628
  N      -45.035     453.845     300.393
  C      -46.039     454.701     300.095
  C      -46.878     454.679     299.002
  C      -46.717     453.613     298.040
  O      -47.407     453.444     297.037
  N      -47.731     455.758     299.002
  C      -47.435     456.403     300.113
  N      -46.402     455.811     300.804
  O      -50.743     459.916     304.367
  O      -49.832     460.109     301.968
  H      -42.993     457.528     303.059
  H      -50.715     460.476     301.780
  H      -45.465     452.044     297.699
  H      -47.931     457.299     300.464
  H      -45.689     455.324     302.681
  H      -43.910     456.808     301.110
  H      -43.517     451.479     298.841
  H      -45.483     458.648     300.876
  H      -43.240     452.131     300.417
  H      -45.846     458.450     303.934
  H      -46.870     460.450     302.804
  H      -47.797     459.337     301.766
  P      -43.570     460.516     301.212
  C      -43.066     462.459     302.841
  O      -43.919     461.961     301.814
  O      -44.026     460.303     299.809
  O      -41.989     460.428     301.407
  H      -41.561     459.734     300.845
  H      -43.408     463.424     303.152
  H      -42.066     462.538     302.467
  H      -43.083     461.789     303.675

 6  7  8  9  10  11  12  13  14  15  26  29  33  34 0
 6-311+G(2d,p)
 ****
 36  38  39  40  41 0
 6-311+G(2d,p)
 ****
 1  2  3  4  5  16  17  18  19  20  21  22  23  24  25 0
 3-21G
 ****
 27  28  30  31  32  35  37  42  43  44  45  46  47 0
 3-21G
 ****
 48  49 0
 3-21G
 ****


