%nproc=1
%NoSave
%Mem=1900MB
#P OB98/GEN NMR

erre ene a

0 1
  C     -184.287       2.647    -596.729
  O     -185.676       2.320    -596.878
  P     -186.687       3.549    -597.119
  C     -188.371       4.931    -595.738
  O     -187.440       3.864    -595.741
  C     -189.231       4.931    -594.452
  O     -190.124       3.794    -594.424
  C     -188.397       4.905    -593.166
  O     -189.106       5.659    -592.180
  C     -188.438       3.437    -592.776
  O     -188.136       3.264    -591.391
  C     -189.865       3.061    -593.199
  N     -190.066       1.624    -593.364
  C     -190.828       0.977    -592.392
  O     -191.240       1.587    -591.405
  N     -191.063      -0.373    -592.536
  C     -190.546      -1.020    -593.530
  N     -190.820      -2.349    -593.615
  C     -189.686      -0.381    -594.553
  C     -189.496       0.932    -594.405
  O     -187.825       2.907    -598.050
  O     -186.040       4.722    -597.782
  H     -188.722       3.860    -590.877
  H     -187.987       3.477    -598.827
  H     -189.261      -0.958    -595.356
  H     -188.889       1.488    -595.100
  H     -190.597       3.417    -592.445
  H     -187.709       2.864    -593.363
  H     -187.387       5.301    -593.285
  H     -189.852       5.838    -594.462
  H     -191.410      -2.750    -592.902
  H     -189.043       4.855    -596.604
  H     -190.461      -2.944    -594.339
  H     -187.838       5.879    -595.853
  P     -188.309       6.812    -591.399
  C     -186.401       6.795    -589.673
  O     -187.356       6.015    -590.365
  O     -189.446       7.370    -590.415
  O     -187.674       7.907    -592.185
  H     -189.096       8.139    -589.917
  H     -185.909       6.164    -588.926
  H     -186.880       7.634    -589.164
  H     -185.638       7.155    -590.373
  H     -183.724       1.750    -596.576
  H     -184.162       3.295    -595.887
  H     -183.940       3.139    -597.613

 3  4  5  6  7  8  9  10  11  12  13  21  23  27  28  29  30  32 0
 6-311+G(2d,p)
 ****
 34  35 0
 6-311+G(2d,p)
 ****
 1  2  14  15  16  17  18  19  20  22  24  25  26 0
 3-21G
 ****
 31  33  36  37  38  39  40  41  42  43  44  45  46 0
 3-21G
 ****


