%nproc=1
%NoSave
%Mem=1900MB
#P OB98/GEN NMR

erre ene a

0 1
  C     -217.039    -630.446     445.806
  O     -217.434    -630.486     447.159
  H     -215.953    -630.567     445.750
  H     -217.304    -629.482     445.366
  H     -217.506    -631.256     445.238
  P     -218.996    -630.521     447.509
  C     -218.738    -632.820     448.648
  O     -219.409    -632.062     447.655
  C     -219.127    -634.300     448.558
  O     -218.512    -634.867     447.362
  C     -218.659    -635.156     449.750
  O     -219.605    -636.222     449.906
  C     -217.324    -635.674     449.230
  O     -216.794    -636.704     450.020
  C     -217.736    -636.010     447.791
  N     -216.635    -636.267     446.865
  C     -216.274    -637.594     446.642
  O     -216.823    -638.563     447.158
  N     -215.224    -637.782     445.771
  C     -214.539    -636.802     445.115
  O     -213.632    -637.036     444.326
  C     -214.963    -635.424     445.404
  C     -215.978    -635.218     446.249
  O     -219.877    -629.712     446.617
  O     -219.056    -629.995     449.022
  H     -219.338    -629.061     449.032
  H     -217.473    -637.408     450.125
  H     -214.960    -638.738     445.593
  H     -214.429    -634.623     444.908
  H     -216.321    -634.213     446.473
  H     -218.409    -636.874     447.788
  H     -216.581    -634.868     449.249
  H     -218.591    -634.587     450.686
  H     -220.214    -634.378     448.419
  H     -219.031    -632.429     449.634
  H     -217.659    -632.708     448.526
  P     -220.883    -636.132     450.869
  C     -222.525    -635.989     448.863
  O     -222.064    -635.386     450.065
  O     -220.604    -635.529     452.201
  O     -221.417    -637.635     451.008
  H     -221.899    -637.736     451.853
  H     -223.304    -635.390     448.439
  H     -222.903    -636.967     449.077
  H     -221.715    -636.064     448.168

 6  7  8  9  10  11  12  13  14  15  16  27  31  32  33  34  35 0
 6-311+G(2d,p)
 ****
 36  37 0
 6-311+G(2d,p)
 ****
 1  2  3  4  5  17  18  19  20  21  22  23  24  25 0
 3-21G
 ****
 26  28  29  30  38  39  40  41  42  43  44  45 0
 3-21G
 ****


