%nproc=1
%NoSave
%Mem=1900MB
#P OB98/GEN NMR

erre ene a

0 1
  C     -329.755      75.553    -317.845
  O     -329.241      75.866    -319.125
  P     -329.394      74.840    -320.342
  C     -326.919      74.183    -320.297
  O     -328.255      73.718    -320.176
  C     -326.550      74.442    -321.758
  O     -325.196      74.967    -321.819
  C     -326.602      73.200    -322.661
  O     -327.024      73.651    -323.954
  C     -325.146      72.771    -322.722
  O     -324.859      71.947    -323.845
  C     -324.461      74.132    -322.739
  N     -319.649      73.522    -324.356
  C     -320.828      73.489    -325.012
  N     -322.070      73.634    -324.505
  C     -322.021      73.835    -323.179
  C     -320.897      73.864    -322.369
  C     -319.656      73.712    -323.014
  N     -318.443      73.777    -322.366
  N     -321.261      74.033    -321.046
  C     -322.576      74.109    -321.061
  N     -323.073      74.059    -322.334
  O     -329.459      75.462    -321.698
  O     -330.740      74.041    -320.008
  H     -325.286      71.081    -323.710
  H     -331.457      74.340    -320.601
  H     -320.766      73.330    -326.086
  H     -323.212      74.197    -320.193
  H     -324.500      74.602    -323.729
  H     -324.892      72.208    -321.815
  H     -327.262      72.410    -322.292
  H     -327.216      75.226    -322.144
  H     -326.254      73.417    -319.889
  H     -317.616      73.792    -322.941
  H     -318.407      74.178    -321.430
  H     -326.790      75.099    -319.709
  P     -327.574      72.594    -325.026
  C     -325.385      72.529    -326.349
  O     -326.302      71.787    -325.566
  O     -328.469      73.158    -326.079
  O     -328.333      71.506    -324.123
  H     -328.933      70.979    -324.684
  H     -325.762      72.608    -327.373
  H     -324.424      72.008    -326.361
  H     -325.238      73.535    -325.942
  H     -329.554      76.361    -317.173
  H     -329.288      74.661    -317.481
  H     -330.812      75.400    -317.913

 3  4  5  6  7  8  9  10  11  12  22  25  29  30  31  32 0
 6-311+G(2d,p)
 ****
 33  36  37 0
 6-311+G(2d,p)
 ****
 1  2  13  14  15  16  17  18  19  20  21  23  24  26 0
 3-21G
 ****
 27  28  34  35  38  39  40  41  42  43  44  45  46  47  48 0
 3-21G
 ****


