%nproc=1
%NoSave
%Mem=1900MB
#P OB98/GEN NMR

erre ene a

0 1
  C      325.430     659.271     225.811
  O      326.251     660.302     225.241
  P      327.766     660.433     225.736
  C      329.268     658.379     225.271
  O      328.703     659.575     224.751
  C      330.628     658.082     224.606
  O      331.263     656.980     225.301
  C      330.542     657.656     223.138
  O      330.577     658.677     222.141
  C      331.844     656.861     222.989
  O      332.937     657.761     222.736
  C      332.019     656.211     224.356
  N      333.380     651.366     223.389
  C      334.053     652.542     223.273
  N      333.606     653.783     223.539
  C      332.353     653.751     224.010
  C      331.547     652.627     224.182
  C      332.110     651.393     223.848
  N      331.428     650.200     223.959
  N      330.306     653.009     224.667
  C      330.356     654.317     224.766
  N      331.572     654.819     224.386
  O      328.008     660.206     227.193
  O      328.136     661.935     225.318
  H      333.019     658.332     223.531
  H      328.711     662.328     226.012
  H      335.068     652.465     222.888
  H      329.541     654.946     225.093
  H      333.070     656.210     224.686
  H      331.809     656.166     222.139
  H      329.679     656.996     222.972
  H      331.271     658.966     224.707
  H      328.585     657.536     225.100
  H      331.877     649.367     223.650
  H      330.453     650.210     224.250
  H      329.356     658.506     226.360
  P      329.227     659.155     221.400
  C      327.409     660.174     222.970
  O      328.630     660.341     222.305
  O      328.254     658.070     221.087
  O      329.793     659.924     220.114
  H      330.260     660.750     220.321
  H      327.285     661.001     223.704
  H      327.374     659.228     223.503
  H      326.588     660.226     222.250
  H      324.452     659.315     225.379
  H      325.360     659.415     226.869
  H      325.867     658.315     225.609

 3  4  5  6  7  8  9  10  11  12  22  25  29  30  31  32 0
 6-311+G(2d,p)
 ****
 33  36  37 0
 6-311+G(2d,p)
 ****
 1  2  13  14  15  16  17  18  19  20  21  23  24  26 0
 3-21G
 ****
 27  28  34  35  38  39  40  41  42  43  44  45  46  47  48 0
 3-21G
 ****


