%nproc=1
%NoSave
%Mem=1900MB
#P OB98/GEN NMR

erre ene a

0 1
  C      -29.563     240.724      39.387
  O      -29.388     239.513      40.096
  H      -30.595     241.072      39.483
  H      -28.896     241.481      39.809
  H      -29.314     240.582      38.330
  P      -30.307     238.276      39.651
  C      -31.988     238.765      41.576
  O      -31.092     237.837      40.981
  C      -32.132     238.449      43.061
  O      -33.051     237.347      43.247
  C      -30.829     238.017      43.727
  O      -30.016     239.117      44.096
  C      -31.362     237.289      44.948
  O      -31.794     238.244      45.933
  C      -32.571     236.543      44.360
  N      -30.654     231.971      45.638
  C      -30.894     233.084      46.365
  N      -31.426     234.253      45.955
  C      -31.731     234.205      44.648
  C      -31.554     233.139      43.782
  C      -30.979     231.976      44.324
  N      -30.703     230.850      43.578
  N      -31.969     233.474      42.507
  C      -32.407     234.713      42.612
  N      -32.255     235.208      43.880
  O      -29.263     237.082      39.440
  O      -31.182     238.505      38.464
  H      -32.391     238.870      45.481
  H      -29.682     236.345      38.955
  H      -30.617     233.028      47.414
  H      -32.832     235.294      41.802
  H      -33.394     236.444      45.078
  H      -30.609     236.654      45.424
  H      -30.275     237.307      43.101
  H      -32.558     239.325      43.563
  H      -32.966     238.684      41.086
  H      -30.159     230.128      44.021
  H      -30.804     230.897      42.576
  H      -31.602     239.781      41.444
  P      -28.474     239.088      43.643
  C      -27.777     238.426      46.055
  O      -27.607     239.329      44.971
  O      -28.313     240.460      42.839
  O      -28.092     237.899      42.821
  H      -27.659     240.367      42.121
  H      -27.137     238.714      46.863
  H      -27.526     237.436      45.737
  H      -28.796     238.449      46.382

 6  7  8  9  10  11  12  13  14  15  25  28  32  33  34  35 0
 6-311+G(2d,p)
 ****
 36  39  40 0
 6-311+G(2d,p)
 ****
 1  2  3  4  5  16  17  18  19  20  21  22  23  24 0
 3-21G
 ****
 26  27  29  30  31  37  38  41  42  43  44  45  46  47 0
 3-21G
 ****
 48 0
 3-21G
 ****


