%nproc=1
%NoSave
%Mem=1900MB
#P OB98/GEN NMR

erre ene a

0 1
  C       28.279     102.305     -42.182
  O       29.671     102.565     -41.930
  P       30.106     103.173     -40.508
  C       32.422     101.973     -40.466
  O       31.704     103.193     -40.371
  C       32.799     101.659     -41.921
  O       33.367     102.841     -42.558
  C       33.824     100.528     -42.082
  O       33.517      99.853     -43.310
  C       35.132     101.288     -42.216
  O       36.167     100.519     -42.811
  C       34.669     102.478     -43.062
  N       35.577     103.625     -43.033
  C       35.446     104.584     -44.031
  O       34.661     104.504     -44.973
  N       36.291     105.661     -43.936
  C       37.256     105.847     -42.990
  O       38.002     106.819     -42.977
  C       37.367     104.788     -41.978
  C       36.537     103.746     -42.046
  O       29.695     101.995     -39.502
  O       29.421     104.444     -40.118
  H       36.178      99.653     -42.366
  H       29.226     102.367     -38.732
  H       36.202     106.372     -44.644
  H       38.116     104.901     -41.206
  H       36.592     102.958     -41.301
  H       34.525     102.156     -44.099
  H       35.474     101.597     -41.223
  H       33.817      99.820     -41.247
  H       31.878     101.421     -42.467
  H       31.802     101.160     -40.077
  H       33.325     102.041     -39.849
  P       33.385      98.251     -43.289
  C       32.024      98.050     -45.514
  O       33.211      97.771     -44.807
  O       31.907      98.095     -42.683
  O       34.429      97.554     -42.482
  H       31.268      98.699     -43.094
  H       31.662      99.060     -45.307
  H       31.254      97.325     -45.238
  H       32.223      97.962     -46.584
  H       28.164     101.905     -43.168
  H       27.725     103.217     -42.100
  H       27.913     101.600     -41.466

 3  4  5  6  7  8  9  10  11  12  13  23  28  29  30  31  32 0
 6-311+G(2d,p)
 ****
 33  34 0
 6-311+G(2d,p)
 ****
 1  2  14  15  16  17  18  19  20  21  22  24  25  26 0
 3-21G
 ****
 27  35  36  37  38  39  40  41  42  43  44  45 0
 3-21G
 ****


