%nproc=1
%NoSave
%Mem=1900MB
#P OB98/GEN NMR

erre ene a

0 1
  C     -580.726     230.657     -70.706
  O     -579.973     231.207     -69.639
  H     -581.695     231.164     -70.747
  H     -580.891     229.587     -70.539
  H     -580.204     230.814     -71.652
  P     -578.499     230.611     -69.426
  C     -577.790     232.284     -71.267
  O     -577.736     230.944     -70.795
  C     -576.427     232.721     -71.799
  O     -576.549     233.919     -72.583
  C     -575.405     233.034     -70.715
  O     -574.814     231.848     -70.216
  C     -574.407     233.873     -71.501
  O     -573.546     233.010     -72.271
  C     -575.317     234.678     -72.444
  N     -573.506     239.392     -71.511
  C     -572.881     238.231     -71.793
  N     -573.420     237.006     -71.990
  C     -574.755     237.052     -71.862
  C     -575.533     238.164     -71.574
  C     -574.854     239.381     -71.406
  N     -575.501     240.567     -71.119
  N     -576.871     237.828     -71.523
  C     -576.903     236.546     -71.824
  N     -575.648     236.019     -72.006
  O     -578.434     229.198     -68.958
  O     -577.879     231.689     -68.418
  H     -572.870     233.575     -72.695
  H     -578.173     232.587     -68.650
  H     -571.799     238.286     -71.882
  H     -577.808     235.958     -71.946
  H     -574.874     234.778     -73.445
  H     -573.762     234.470     -70.850
  H     -575.839     233.650     -69.918
  H     -576.057     231.929     -72.464
  H     -578.113     232.958     -70.466
  H     -574.931     241.355     -70.846
  H     -576.487     240.535     -70.925
  H     -578.535     232.319     -72.071
  P     -574.274     231.772     -68.704
  C     -575.966     229.915     -68.152
  O     -575.485     231.212     -67.814
  O     -573.661     233.030     -68.195
  O     -573.236     230.557     -68.710
  H     -572.471     230.766     -68.136
  H     -576.768     229.650     -67.495
  H     -575.173     229.203     -68.053
  H     -576.319     229.917     -69.162

 6  7  8  9  10  11  12  13  14  15  25  28  32  33  34  35 0
 6-311+G(2d,p)
 ****
 36  39  40 0
 6-311+G(2d,p)
 ****
 1  2  3  4  5  16  17  18  19  20  21  22  23  24 0
 3-21G
 ****
 26  27  29  30  31  37  38  41  42  43  44  45  46  47 0
 3-21G
 ****
 48 0
 3-21G
 ****


