%nproc=1
%NoSave
%Mem=1900MB
#P OB98/GEN NMR

erre ene a

0 1
  C      197.804    -266.424    -417.476
  O      198.586    -266.693    -416.306
  P      199.963    -265.893    -416.119
  C      199.193    -263.524    -415.367
  O      199.757    -264.771    -414.991
  C      200.083    -262.371    -414.901
  O      199.836    -261.164    -415.649
  C      199.873    -261.988    -413.442
  O      200.590    -262.847    -412.568
  C      200.470    -260.590    -413.415
  O      201.906    -260.671    -413.331
  C      200.050    -260.031    -414.778
  N      198.102    -255.381    -413.864
  C      199.363    -255.861    -413.783
  N      199.800    -257.114    -414.025
  C      198.783    -257.909    -414.400
  C      197.448    -257.559    -414.524
  C      197.115    -256.225    -414.238
  N      195.830    -255.740    -414.323
  N      196.694    -258.646    -414.920
  C      197.560    -259.628    -415.047
  N      198.836    -259.236    -414.734
  O      200.071    -265.041    -417.470
  O      201.155    -266.774    -415.935
  H      202.240    -259.762    -413.243
  H      201.003    -264.956    -417.734
  H      200.123    -255.146    -413.486
  H      197.316    -260.634    -415.361
  H      200.829    -259.406    -415.234
  H      200.135    -260.006    -412.552
  H      198.804    -261.945    -413.198
  H      201.132    -262.665    -415.055
  H      198.188    -263.419    -414.943
  H      195.671    -254.766    -414.131
  H      195.091    -256.363    -414.625
  H      199.068    -263.503    -416.457
  P      199.733    -263.726    -411.534
  C      198.747    -265.694    -412.910
  O      199.797    -265.227    -412.086
  O      198.228    -263.262    -411.831
  O      200.108    -263.532    -410.103
  H      197.691    -263.330    -411.019
  H      199.088    -266.595    -413.432
  H      198.467    -264.944    -413.655
  H      197.879    -265.948    -412.298
  H      196.921    -267.028    -417.462
  H      198.378    -266.653    -418.349
  H      197.528    -265.390    -417.491

 3  4  5  6  7  8  9  10  11  12  22  25  29  30  31  32 0
 6-311+G(2d,p)
 ****
 33  36  37 0
 6-311+G(2d,p)
 ****
 1  2  13  14  15  16  17  18  19  20  21  23  24  26 0
 3-21G
 ****
 27  28  34  35  38  39  40  41  42  43  44  45  46  47  48 0
 3-21G
 ****


