%nproc=1
%NoSave
%Mem=1900MB
#P OB98/GEN NMR

erre ene a

0 1
  C       36.390      44.810     -11.864
  O       36.780      43.805     -10.948
  P       38.042      44.018      -9.989
  C       39.662      42.810     -11.562
  O       39.355      44.037     -10.914
  C       41.165      42.534     -11.547
  O       41.840      43.551     -12.337
  C       41.804      42.539     -10.152
  O       42.857      41.570     -10.177
  C       42.400      43.934     -10.061
  O       43.429      44.035      -9.085
  C       42.867      44.124     -11.500
  N       45.936      48.179     -10.988
  C       46.000      46.934     -10.472
  N       45.129      45.918     -10.634
  C       44.109      46.287     -11.426
  C       43.893      47.529     -12.000
  C       44.878      48.506     -11.769
  N       44.848      49.770     -12.316
  N       42.700      47.536     -12.698
  C       42.211      46.323     -12.548
  N       43.059      45.516     -11.841
  O       38.119      43.092      -8.821
  O       37.913      45.540      -9.512
  H       43.654      44.978      -8.970
  H       37.616      45.571      -8.581
  H       46.866      46.724      -9.851
  H       41.258      45.978     -12.924
  H       43.805      43.594     -11.703
  H       41.614      44.653      -9.800
  H       41.102      42.328      -9.340
  H       41.340      41.572     -12.045
  H       39.318      42.880     -12.599
  H       45.668      50.342     -12.195
  H       44.225      49.950     -13.102
  H       39.124      41.989     -11.075
  P       43.200      40.728      -8.856
  C       45.594      41.600      -8.627
  O       44.300      41.568      -8.053
  O       43.528      39.290      -9.082
  O       41.884      40.900      -7.954
  H       41.872      40.211      -7.262
  H       46.126      40.679      -8.377
  H       46.144      42.451      -8.216
  H       45.541      41.703      -9.714
  H       35.531      44.481     -12.410
  H       37.193      45.003     -12.544
  H       36.151      45.706     -11.330

 3  4  5  6  7  8  9  10  11  12  22  25  29  30  31  32 0
 6-311+G(2d,p)
 ****
 33  36  37 0
 6-311+G(2d,p)
 ****
 1  2  13  14  15  16  17  18  19  20  21  23  24  26 0
 3-21G
 ****
 27  28  34  35  38  39  40  41  42  43  44  45  46  47  48 0
 3-21G
 ****


