%nproc=1
%NoSave
%Mem=1900MB
#P OB98/GEN NMR

erre ene a

0 1
  C     -284.048     707.848    -897.540
  O     -285.175     708.468    -898.130
  P     -285.028     709.902    -898.830
  C     -284.702     712.294    -897.900
  O     -285.162     710.982    -897.630
  C     -284.681     713.148    -896.630
  O     -283.990     712.451    -895.570
  C     -283.967     714.484    -896.780
  O     -284.804     715.416    -897.460
  C     -283.695     714.838    -895.330
  O     -284.838     715.438    -894.700
  C     -283.385     713.453    -894.710
  N     -281.960     713.218    -894.530
  C     -281.277     714.188    -893.770
  O     -281.869     715.178    -893.330
  N     -279.909     714.038    -893.590
  C     -279.302     713.017    -894.120
  N     -277.963     712.928    -893.880
  C     -279.982     712.003    -894.940
  C     -281.296     712.161    -895.110
  O     -285.915     710.140    -900.000
  O     -283.461     709.977    -899.200
  H     -285.066     716.225    -895.240
  H     -283.251     709.404    -899.960
  H     -279.430     711.179    -895.370
  H     -281.870     711.463    -895.700
  H     -283.884     713.352    -893.740
  H     -282.863     715.545    -895.220
  H     -283.022     714.329    -897.330
  H     -285.727     713.300    -896.310
  H     -277.541     713.658    -893.350
  H     -285.365     712.757    -898.640
  H     -277.378     712.204    -894.290
  H     -283.686     712.235    -898.340
  P     -284.284     716.895    -897.750
  C     -283.235     718.650    -896.190
  O     -284.242     717.683    -896.350
  O     -284.950     717.616    -898.880
  O     -282.708     716.688    -898.060
  H     -282.464     717.233    -898.850
  H     -283.521     719.331    -895.380
  H     -283.109     719.232    -897.100
  H     -282.284     718.156    -895.940
  H     -284.336     706.905    -897.126
  H     -283.661     708.475    -896.764
  H     -283.294     707.696    -898.284

 3  4  5  6  7  8  9  10  11  12  13  23  27  28  29  30  32 0
 6-311+G(2d,p)
 ****
 34  35 0
 6-311+G(2d,p)
 ****
 1  2  14  15  16  17  18  19  20  21  22  24  25  26 0
 3-21G
 ****
 31  33  36  37  38  39  40  41  42  43  44  45  46 0
 3-21G
 ****


