%nproc=1
%NoSave
%Mem=1900MB
#P OB98/GEN NMR

erre ene a

0 1
  C      290.971    -309.782       1.703
  O      292.352    -309.741       2.009
  H      290.653    -308.783       1.392
  H      290.397    -310.077       2.585
  H      290.789    -310.480       0.883
  P      293.013    -311.110       2.523
  C      292.149    -312.826       4.256
  O      292.207    -311.463       3.864
  C      290.837    -313.122       4.979
  O      289.721    -312.845       4.117
  C      290.679    -314.566       5.432
  O      291.339    -314.773       6.670
  C      289.168    -314.659       5.586
  O      288.775    -314.093       6.852
  C      288.654    -313.775       4.437
  N      284.822    -314.838       1.190
  C      284.832    -314.237       2.399
  N      285.877    -314.037       3.231
  C      287.011    -314.522       2.697
  C      287.154    -315.161       1.475
  C      285.993    -315.308       0.699
  N      285.986    -315.923      -0.536
  N      288.467    -315.525       1.261
  C      289.114    -315.062       2.311
  N      288.272    -314.478       3.226
  O      294.501    -311.110       2.629
  O      292.408    -312.156       1.472
  H      287.813    -314.232       6.936
  H      291.473    -311.955       1.289
  H      283.871    -313.872       2.749
  H      290.188    -315.100       2.447
  H      287.784    -313.182       4.739
  H      288.806    -315.688       5.572
  H      291.005    -315.273       4.661
  H      290.764    -312.436       5.835
  H      292.995    -313.068       4.911
  H      285.090    -316.156      -0.930
  H      286.833    -316.385      -0.835
  H      292.230    -313.436       3.350
  P      291.708    -316.251       7.176
  C      290.248    -318.248       7.876
  O      290.344    -316.831       7.788
  O      292.900    -316.322       8.064
  O      291.886    -317.096       5.830
  H      292.362    -317.926       6.019
  H      289.301    -318.516       8.296
  H      291.033    -318.621       8.500
  H      290.337    -318.673       6.898

 6  7  8  9  10  11  12  13  14  15  25  28  32  33  34  35 0
 6-311+G(2d,p)
 ****
 36  39  40 0
 6-311+G(2d,p)
 ****
 1  2  3  4  5  16  17  18  19  20  21  22  23  24 0
 3-21G
 ****
 26  27  29  30  31  37  38  41  42  43  44  45  46  47 0
 3-21G
 ****
 48 0
 3-21G
 ****


