%nproc=1
%NoSave
%Mem=1900MB
#P OB98/GEN NMR

erre ene a

0 1
  C     -184.338     686.011     -47.495
  O     -184.306     686.104     -46.083
  H     -184.924     686.850     -47.881
  H     -184.822     685.078     -47.794
  H     -183.330     686.061     -47.905
  P     -183.503     684.945     -45.311
  C     -183.640     682.349     -45.280
  O     -184.239     683.563     -45.704
  C     -184.690     681.422     -44.676
  O     -185.782     681.246     -45.584
  C     -184.177     680.022     -44.333
  O     -183.515     680.020     -43.072
  C     -185.463     679.227     -44.314
  O     -186.177     679.391     -43.063
  C     -186.250     679.861     -45.481
  N     -186.229     675.360     -47.765
  C     -186.534     675.690     -46.464
  N     -186.820     674.673     -45.626
  N     -186.532     676.917     -46.013
  C     -186.202     677.839     -46.950
  C     -185.897     677.623     -48.285
  C     -185.916     676.268     -48.774
  O     -185.732     675.911     -49.933
  N     -185.620     678.816     -48.915
  C     -185.716     679.726     -47.972
  N     -186.052     679.187     -46.759
  O     -183.933     685.152     -43.776
  O     -182.028     684.958     -45.480
  H     -187.063     679.024     -43.160
  H     -183.197     684.876     -43.203
  H     -186.262     674.391     -48.050
  H     -185.555     680.786     -48.109
  H     -187.321     679.884     -45.296
  H     -185.277     678.154     -44.434
  H     -186.509     673.727     -45.815
  H     -183.503     679.653     -45.122
  H     -187.013     674.907     -44.659
  H     -185.074     681.911     -43.773
  H     -182.869     682.574     -44.533
  H     -183.152     681.867     -46.140
  P     -182.240     679.036     -42.896
  C     -181.926     676.479     -42.622
  O     -182.833     677.566     -42.742
  O     -181.710     679.384     -41.422
  O     -181.178     679.205     -43.936
  H     -180.800     679.054     -41.320
  H     -182.475     675.565     -42.527
  H     -181.314     676.619     -41.756
  H     -181.306     676.434     -43.493

 6  7  8  9  10  11  12  13  14  15  26  29  33  34 0
 6-311+G(2d,p)
 ****
 36  38  39  40  41 0
 6-311+G(2d,p)
 ****
 1  2  3  4  5  16  17  18  19  20  21  22  23  24  25 0
 3-21G
 ****
 27  28  30  31  32  35  37  42  43  44  45  46  47 0
 3-21G
 ****
 48  49 0
 3-21G
 ****


