%nproc=1
%NoSave
%Mem=1900MB
#P OB98/GEN NMR

erre ene a

0 1
  C     -350.797    -964.144    -293.411
  O     -349.627    -964.577    -292.733
  H     -351.356    -963.484    -292.748
  H     -351.424    -965.008    -293.657
  H     -350.525    -963.605    -294.320
  P     -348.679    -965.596    -293.526
  C     -346.717    -964.304    -292.414
  O     -347.265    -965.572    -292.764
  C     -345.331    -964.485    -291.795
  O     -344.526    -965.377    -292.609
  C     -344.540    -963.199    -291.644
  O     -344.913    -962.486    -290.475
  C     -343.106    -963.719    -291.585
  O     -342.790    -964.202    -290.269
  C     -343.158    -964.877    -292.594
  N     -339.491    -965.268    -296.052
  C     -339.595    -965.822    -294.806
  N     -338.540    -966.547    -294.380
  N     -340.629    -965.669    -294.011
  C     -341.599    -964.880    -294.556
  C     -341.620    -964.288    -295.785
  C     -340.474    -964.487    -296.656
  O     -340.350    -964.067    -297.810
  N     -342.784    -963.582    -295.991
  C     -343.435    -963.732    -294.850
  N     -342.750    -964.504    -293.942
  O     -348.370    -964.819    -294.894
  O     -349.255    -966.951    -293.784
  H     -342.745    -963.444    -289.653
  H     -348.230    -965.476    -295.608
  H     -338.677    -965.423    -296.616
  H     -344.419    -963.303    -294.647
  H     -342.512    -965.710    -292.305
  H     -342.392    -962.939    -291.832
  H     -337.613    -966.425    -294.770
  H     -344.662    -962.546    -292.541
  H     -338.603    -966.945    -293.444
  H     -345.469    -964.972    -290.819
  H     -347.380    -963.816    -291.682
  H     -346.660    -963.690    -293.307
  P     -344.800    -960.893    -290.485
  C     -346.623    -961.140    -288.649
  O     -345.540    -960.371    -289.148
  O     -345.792    -960.453    -291.654
  O     -343.414    -960.363    -290.683
  H     -345.613    -959.531    -291.930
  H     -347.012    -960.677    -287.766
  H     -346.281    -962.126    -288.413
  H     -347.392    -961.197    -289.391

 6  7  8  9  10  11  12  13  14  15  26  29  33  34 0
 6-311+G(2d,p)
 ****
 36  38  39  40  41 0
 6-311+G(2d,p)
 ****
 1  2  3  4  5  16  17  18  19  20  21  22  23  24  25 0
 3-21G
 ****
 27  28  30  31  32  35  37  42  43  44  45  46  47 0
 3-21G
 ****
 48  49 0
 3-21G
 ****


