%nproc=1
%NoSave
%Mem=1900MB
#P OB98/GEN NMR

erre ene a

0 1
  C      157.943     -62.077     -81.522
  O      158.532     -62.381     -82.769
  H      157.030     -61.503     -81.694
  H      158.633     -61.466     -80.934
  H      157.692     -62.988     -80.974
  P      159.647     -63.534     -82.794
  C      161.720     -61.992     -82.550
  O      160.983     -62.868     -83.389
  C      162.174     -60.760     -83.334
  O      160.991     -60.024     -83.771
  C      163.055     -59.791     -82.527
  O      164.049     -59.234     -83.399
  C      162.084     -58.688     -82.151
  O      162.743     -57.459     -81.871
  C      161.202     -58.651     -83.395
  N      157.582     -55.974     -85.611
  C      158.619     -56.706     -86.156
  N      158.755     -56.674     -87.500
  N      159.459     -57.407     -85.443
  C      159.199     -57.369     -84.112
  C      158.210     -56.683     -83.450
  C      157.295     -55.894     -84.250
  O      156.371     -55.209     -83.826
  N      158.321     -56.852     -82.093
  C      159.386     -57.620     -81.937
  N      159.953     -57.959     -83.134
  O      159.139     -64.484     -83.979
  O      159.821     -64.282     -81.516
  H      163.322     -57.241     -82.630
  H      158.608     -65.215     -83.612
  H      156.973     -55.437     -86.205
  H      159.793     -57.939     -80.989
  H      161.683     -58.135     -84.236
  H      161.506     -58.982     -81.266
  H      158.131     -56.181     -88.118
  H      163.541     -60.249     -81.659
  H      159.488     -57.237     -87.915
  H      162.695     -61.093     -84.239
  H      162.602     -62.515     -82.167
  H      161.095     -61.693     -81.702
  P      165.555     -59.135     -82.859
  C      166.076     -56.621     -83.291
  O      166.312     -57.971     -83.664
  O      166.230     -60.471     -83.425
  O      165.660     -59.055     -81.372
  H      166.892     -60.802     -82.788
  H      166.650     -55.972     -83.918
  H      166.364     -56.477     -82.271
  H      165.036     -56.397     -83.403

 6  7  8  9  10  11  12  13  14  15  26  29  33  34 0
 6-311+G(2d,p)
 ****
 36  38  39  40  41 0
 6-311+G(2d,p)
 ****
 1  2  3  4  5  16  17  18  19  20  21  22  23  24  25 0
 3-21G
 ****
 27  28  30  31  32  35  37  42  43  44  45  46  47 0
 3-21G
 ****
 48  49 0
 3-21G
 ****


