%nproc=1
%NoSave
%Mem=1900MB
#P OB98/GEN NMR

erre ene a

0 1
  C       14.167     339.516    -669.158
  O       14.960     340.472    -668.475
  H       14.646     338.532    -669.123
  H       13.191     339.448    -668.657
  H       14.009     339.824    -670.196
  P       16.422     340.741    -669.075
  C       17.749     339.108    -667.548
  O       17.458     340.464    -667.876
  C       18.907     339.052    -666.549
  O       20.122     339.505    -667.178
  C       18.729     339.929    -665.317
  O       17.883     339.325    -664.351
  C       20.166     340.018    -664.827
  O       20.506     338.814    -664.113
  C       20.952     340.100    -666.137
  N       23.452     344.363    -664.786
  C       23.368     343.134    -664.213
  N       22.704     342.047    -664.643
  C       22.085     342.304    -665.808
  C       22.086     343.491    -666.523
  C       22.804     344.561    -665.960
  N       22.828     345.825    -666.528
  N       21.324     343.372    -667.667
  C       20.848     342.144    -667.627
  N       21.285     341.458    -666.531
  O       16.453     342.339    -669.245
  O       16.720     340.044    -670.358
  H       20.025     338.845    -663.264
  H       16.232     342.567    -670.166
  H       23.919     343.021    -663.273
  H       20.187     341.712    -668.369
  H       21.888     339.524    -666.100
  H       20.333     340.861    -664.140
  H       18.380     340.939    -665.577
  H       19.051     338.000    -666.265
  H       18.029     338.567    -668.459
  H       22.956     346.574    -665.850
  H       22.124     345.979    -667.241
  H       16.851     338.650    -667.116
  P       16.980     340.277    -663.432
  C       17.626     339.062    -661.242
  O       16.579     339.427    -662.137
  O       15.626     340.394    -664.257
  O       17.569     341.642    -663.162
  H       15.410     341.334    -664.435
  H       17.219     338.501    -660.427
  H       18.098     339.946    -660.866
  H       18.347     338.465    -661.761

 6  7  8  9  10  11  12  13  14  15  25  28  32  33  34  35 0
 6-311+G(2d,p)
 ****
 36  39  40 0
 6-311+G(2d,p)
 ****
 1  2  3  4  5  16  17  18  19  20  21  22  23  24 0
 3-21G
 ****
 26  27  29  30  31  37  38  41  42  43  44  45  46  47  48 0
 3-21G
 ****


