%nproc=1
%NoSave
%Mem=1900MB
#P OB98/GEN NMR

erre ene a

0 1
  C      358.004    -768.800     137.630
  O      359.230    -769.296     138.119
  H      357.655    -768.003     138.299
  H      357.241    -769.583     137.596
  H      358.141    -768.370     136.629
  P      359.817    -770.638     137.457
  C      358.771    -772.980     137.145
  O      358.873    -771.826     137.982
  C      357.814    -774.016     137.752
  O      356.493    -773.455     137.879
  C      357.639    -775.265     136.901
  O      358.786    -776.086     136.841
  C      356.328    -775.837     137.420
  O      356.487    -776.673     138.560
  C      355.556    -774.554     137.815
  N      354.449    -774.274     136.901
  C      353.369    -775.146     136.977
  O      353.326    -776.117     137.729
  N      352.342    -774.894     136.101
  C      352.319    -773.909     135.155
  O      351.387    -773.765     134.375
  C      353.505    -773.038     135.109
  C      354.498    -773.250     135.970
  O      361.279    -770.888     137.677
  O      359.414    -770.509     135.914
  H      357.168    -777.335     138.339
  H      359.938    -771.130     135.355
  H      351.544    -775.510     136.142
  H      353.524    -772.246     134.367
  H      355.390    -772.621     135.957
  H      355.134    -774.661     138.824
  H      355.819    -776.428     136.652
  H      357.450    -774.943     135.865
  H      358.171    -774.269     138.758
  H      359.770    -773.422     137.062
  H      358.429    -772.683     136.151
  P      359.140    -777.002     135.580
  C      357.853    -778.761     134.175
  O      358.004    -778.127     135.430
  O      360.574    -777.404     135.432
  O      358.795    -776.003     134.354
  H      359.427    -776.186     133.635
  H      357.063    -779.480     134.232
  H      358.766    -779.254     133.912
  H      357.616    -778.029     133.432

 6  7  8  9  10  11  12  13  14  15  16  26  31  32  33  34  35 0
 6-311+G(2d,p)
 ****
 36  37 0
 6-311+G(2d,p)
 ****
 1  2  3  4  5  17  18  19  20  21  22  23  24  25 0
 3-21G
 ****
 27  28  29  30  38  39  40  41  42  43  44  45 0
 3-21G
 ****


