%nproc=1
%NoSave
%Mem=1900MB
#P OB98/GEN NMR

erre ene a

0 1
  C     -235.638    -389.014     377.348
  O     -236.214    -388.472     378.545
  P     -237.275    -387.268     378.540
  C     -238.318    -387.743     380.853
  O     -237.582    -386.824     380.055
  C     -237.408    -388.804     381.486
  O     -236.309    -388.156     382.204
  C     -238.119    -389.740     382.483
  O     -237.559    -391.046     382.289
  C     -237.701    -389.148     383.822
  O     -237.863    -390.034     384.912
  C     -236.251    -388.780     383.507
  N     -235.604    -387.894     384.465
  C     -234.724    -388.477     385.395
  O     -234.546    -389.690     385.437
  N     -234.074    -387.651     386.280
  C     -234.274    -386.370     386.261
  N     -233.587    -385.620     387.158
  C     -235.204    -385.724     385.318
  C     -235.823    -386.538     384.460
  O     -238.510    -387.557     377.748
  O     -236.495    -386.009     377.927
  H     -237.115    -385.475     377.395
  H     -237.623    -389.557     385.728
  H     -235.336    -384.655     385.322
  H     -236.505    -386.130     383.713
  H     -235.658    -389.696     383.395
  H     -238.321    -388.262     384.018
  H     -239.202    -389.794     382.336
  H     -236.951    -389.386     380.677
  H     -232.955    -386.101     387.779
  H     -239.050    -388.248     380.215
  H     -233.662    -384.614     387.219
  H     -238.857    -387.195     381.627
  P     -238.508    -392.331     382.370
  C     -237.056    -393.790     380.773
  O     -237.604    -393.621     382.067
  O     -239.362    -392.205     381.019
  O     -239.419    -392.410     383.551
  H     -240.216    -392.662     381.134
  H     -236.009    -394.096     380.874
  H     -237.092    -392.874     380.179
  H     -237.610    -394.574     380.252
  H     -234.963    -389.804     377.603
  H     -235.107    -388.245     376.828
  H     -236.415    -389.398     376.720

 3  4  5  6  7  8  9  10  11  12  13  24  27  28  29  30  32 0
 6-311+G(2d,p)
 ****
 34  35 0
 6-311+G(2d,p)
 ****
 1  2  14  15  16  17  18  19  20  21  22  23  25  26 0
 3-21G
 ****
 31  33  36  37  38  39  40  41  42  43  44  45  46 0
 3-21G
 ****


