%nproc=1
%NoSave
%Mem=1900MB
#P OB98/GEN NMR

erre ene a

0 1
  C      -79.032     -42.847     191.267
  O      -77.638     -42.941     191.459
  H      -79.339     -43.619     190.557
  H      -79.279     -41.867     190.850
  H      -79.576     -42.996     192.202
  P      -76.993     -42.263     192.756
  C      -76.399     -40.079     191.512
  O      -77.106     -40.667     192.598
  C      -75.362     -39.066     191.999
  O      -75.970     -38.170     192.955
  C      -74.178     -39.730     192.705
  O      -73.133     -40.143     191.843
  C      -73.709     -38.621     193.644
  O      -72.758     -37.759     192.996
  C      -74.998     -37.856     193.963
  N      -74.341     -37.607     199.026
  C      -73.434     -37.324     198.021
  N      -72.195     -36.970     198.423
  N      -73.725     -37.405     196.750
  C      -74.972     -37.867     196.502
  C      -75.949     -38.197     197.415
  C      -75.642     -38.037     198.821
  O      -76.415     -38.257     199.750
  N      -77.080     -38.672     196.797
  C      -76.752     -38.710     195.519
  N      -75.515     -38.157     195.287
  O      -75.419     -42.516     192.564
  O      -77.458     -42.813     194.071
  H      -73.086     -37.572     192.095
  H      -74.996     -42.608     193.436
  H      -74.067     -37.499     199.988
  H      -77.387     -39.081     194.723
  H      -74.838     -36.770     193.922
  H      -73.207     -39.039     194.523
  H      -71.892     -36.976     199.383
  H      -74.516     -40.573     193.318
  H      -71.450     -36.940     197.721
  H      -75.029     -38.453     191.151
  H      -77.144     -39.582     190.888
  H      -75.922     -40.854     190.907
  P      -72.038     -41.201     192.327
  C      -70.467     -39.323     193.274
  O      -71.166     -40.532     193.482
  O      -71.027     -41.267     191.091
  O      -72.565     -42.551     192.692
  H      -71.216     -42.044     190.530
  H      -69.950     -39.051     194.170
  H      -71.160     -38.550     193.014
  H      -69.761     -39.451     192.480

 6  7  8  9  10  11  12  13  14  15  26  29  33  34 0
 6-311+G(2d,p)
 ****
 36  38  39  40  41 0
 6-311+G(2d,p)
 ****
 1  2  3  4  5  16  17  18  19  20  21  22  23  24  25 0
 3-21G
 ****
 27  28  30  31  32  35  37  42  43  44  45  46  47 0
 3-21G
 ****
 48  49 0
 3-21G
 ****


