%nproc=1
%NoSave
%Mem=1900MB
#P OB98/GEN NMR

erre ene a

0 1
  C      388.999     -61.509    -193.230
  O      387.592     -61.590    -193.121
  H      389.285     -60.452    -193.299
  H      389.332     -62.019    -194.137
  H      389.487     -61.945    -192.355
  P      386.930     -62.998    -192.733
  C      386.371     -63.462    -195.210
  O      385.865     -63.333    -193.889
  C      385.224     -63.513    -196.226
  O      384.824     -64.907    -196.404
  C      383.965     -62.726    -195.792
  O      383.345     -62.224    -196.988
  C      383.137     -63.830    -195.171
  O      381.796     -63.437    -194.976
  C      383.398     -64.960    -196.170
  N      382.986     -66.277    -195.687
  C      382.032     -66.957    -196.436
  O      381.539     -66.528    -197.477
  N      381.644     -68.176    -195.933
  C      382.105     -68.747    -194.783
  O      381.736     -69.853    -194.387
  C      383.088     -67.967    -194.021
  C      383.483     -66.781    -194.508
  O      386.402     -63.108    -191.342
  O      388.104     -64.059    -193.011
  H      388.553     -64.267    -192.168
  H      381.364     -63.271    -195.845
  H      380.949     -68.686    -196.457
  H      383.461     -68.386    -193.096
  H      384.208     -66.175    -193.969
  H      382.904     -64.753    -197.126
  H      383.528     -64.090    -194.179
  H      384.194     -61.894    -195.120
  H      385.592     -63.160    -197.196
  H      386.956     -64.386    -195.270
  H      387.027     -62.607    -195.430
  P      383.208     -60.660    -197.318
  C      380.697     -60.938    -197.833
  O      381.944     -60.429    -198.282
  O      384.469     -60.042    -197.840
  O      382.778     -59.963    -195.942
  H      383.193     -59.088    -195.880
  H      379.941     -60.721    -198.559
  H      380.439     -60.479    -196.901
  H      380.771     -61.997    -197.700

 6  7  8  9  10  11  12  13  14  15  16  27  31  32  33  34  35 0
 6-311+G(2d,p)
 ****
 36  37 0
 6-311+G(2d,p)
 ****
 1  2  3  4  5  17  18  19  20  21  22  23  24  25 0
 3-21G
 ****
 26  28  29  30  38  39  40  41  42  43  44  45 0
 3-21G
 ****


