%nproc=1
%NoSave
%Mem=1900MB
#P OB98/GEN NMR

erre ene a

0 1
  C      356.814    -688.608     582.707
  O      355.632    -688.647     581.905
  P      354.530    -687.509     582.187
  C      352.331    -688.115     583.437
  O      353.729    -687.903     583.525
  C      351.888    -689.393     584.145
  O      352.089    -689.266     585.589
  C      350.408    -689.737     583.934
  O      350.301    -691.168     583.927
  C      349.743    -689.203     585.183
  O      348.470    -689.838     585.405
  C      350.819    -689.511     586.235
  N      350.672    -688.717     587.469
  C      349.633    -689.073     588.329
  O      348.837    -689.972     588.016
  N      349.484    -688.382     589.497
  C      350.272    -687.384     589.766
  N      350.071    -686.734     590.943
  C      351.342    -686.941     588.850
  C      351.487    -687.646     587.730
  O      353.452    -687.747     581.018
  O      355.076    -686.127     582.156
  H      348.636    -690.769     585.688
  H      353.255    -686.900     580.583
  H      351.968    -686.087     589.104
  H      352.249    -687.396     586.997
  H      350.787    -690.575     586.521
  H      349.579    -688.124     585.091
  H      350.002    -689.343     583.007
  H      352.520    -690.212     583.810
  H      349.324    -687.075     591.543
  H      352.031    -688.182     582.377
  H      350.615    -685.955     591.246
  H      351.811    -687.234     583.826
  P      350.632    -691.953     582.567
  C      348.293    -692.241     581.535
  O      349.491    -691.482     581.539
  O      350.140    -693.442     582.926
  O      352.030    -691.949     582.060
  H      350.350    -694.041     582.195
  H      347.561    -691.742     580.896
  H      347.879    -692.320     582.533
  H      348.490    -693.242     581.124
  H      357.463    -689.411     582.425
  H      356.549    -688.710     583.739
  H      357.315    -687.675     582.558

 3  4  5  6  7  8  9  10  11  12  13  21  23  27  28  29  30  32 0
 6-311+G(2d,p)
 ****
 34  35 0
 6-311+G(2d,p)
 ****
 1  2  14  15  16  17  18  19  20  22  24  25  26 0
 3-21G
 ****
 31  33  36  37  38  39  40  41  42  43  44  45  46 0
 3-21G
 ****


