%nproc=1
%NoSave
%Mem=1900MB
#P OB98/GEN NMR

erre ene a

0 1
  C      152.663    -166.514     -13.892
  O      153.285    -167.145     -15.016
  P      154.763    -167.726     -14.769
  C      154.908    -170.281     -14.369
  O      154.796    -169.234     -15.320
  C      154.508    -171.633     -14.970
  O      153.069    -171.694     -15.210
  C      155.197    -171.943     -16.306
  O      155.418    -173.359     -16.345
  C      154.133    -171.577     -17.325
  O      154.393    -172.180     -18.591
  C      152.890    -172.081     -16.593
  N      149.159    -172.871     -19.901
  C      150.327    -173.575     -19.694
  N      150.507    -174.682     -20.446
  N      151.239    -173.225     -18.827
  C      150.911    -172.119     -18.118
  C      149.776    -171.342     -18.220
  C      148.788    -171.721     -19.208
  O      147.734    -171.138     -19.427
  N      149.785    -170.315     -17.303
  C      150.958    -170.440     -16.704
  N      151.649    -171.546     -17.120
  O      154.827    -167.895     -13.181
  O      155.848    -166.837     -15.278
  H      153.817    -171.737     -19.253
  H      155.316    -167.154     -12.782
  H      148.497    -173.174     -20.598
  H      151.342    -169.773     -15.948
  H      152.796    -173.175     -16.636
  H      154.095    -170.491     -17.460
  H      149.819    -175.037     -21.099
  H      156.138    -171.407     -16.464
  H      151.335    -175.243     -20.288
  H      154.751    -172.418     -14.242
  H      154.267    -170.073     -13.507
  H      155.933    -170.308     -13.984
  P      156.928    -173.880     -16.475
  C      157.913    -172.979     -14.258
  O      157.483    -174.109     -14.991
  O      157.717    -172.574     -16.973
  O      157.116    -175.017     -17.428
  H      158.395    -172.835     -17.627
  H      157.811    -173.193     -13.188
  H      157.320    -172.091     -14.494
  H      158.964    -172.778     -14.475
  H      151.690    -166.168     -14.171
  H      153.259    -165.684     -13.574
  H      152.575    -167.218     -13.091

 3  4  5  6  7  8  9  10  11  12  23  26  30  31 0
 6-311+G(2d,p)
 ****
 33  35  36  37  38 0
 6-311+G(2d,p)
 ****
 1  2  13  14  15  16  17  18  19  20  21  22  24  25 0
 3-21G
 ****
 27  28  29  32  34  39  40  41  42  43  44  45  46  47  48  49 0
 3-21G
 ****


