%nproc=1
%NoSave
%Mem=1900MB
#P OB98/GEN NMR

erre ene a

0 1
  C      210.727     200.848      32.578
  O      210.099     199.619      32.275
  H      210.303     201.241      33.504
  H      210.543     201.571      31.777
  H      211.804     200.712      32.713
  P      210.666     198.737      31.058
  C      209.868     200.540      29.388
  O      210.957     199.751      29.849
  C      210.325     201.501      28.286
  O      211.368     202.368      28.828
  C      210.920     200.804      27.037
  O      210.641     201.654      25.912
  C      212.398     200.814      27.386
  O      213.211     200.474      26.294
  C      212.517     202.235      27.957
  N      213.748     202.516      28.683
  C      214.783     203.138      27.984
  O      214.730     203.462      26.797
  N      215.922     203.375      28.703
  C      216.120     203.076      30.023
  O      217.163     203.343      30.616
  C      214.996     202.419      30.702
  C      213.879     202.177      30.017
  O      209.861     197.534      30.700
  O      212.142     198.334      31.540
  H      212.140     197.416      31.863
  H      214.152     200.599      26.547
  H      216.680     203.827      28.214
  H      215.129     202.156      31.745
  H      213.023     201.702      30.493
  H      212.391     202.969      27.153
  H      212.603     200.064      28.155
  H      210.494     199.813      26.862
  H      209.482     202.152      28.010
  H      209.471     201.105      30.236
  H      209.081     199.877      29.004
  P      209.362     201.464      24.957
  C      210.898     200.423      23.150
  O      209.699     200.296      23.908
  O      208.896     202.733      24.319
  O      208.226     200.828      25.894
  H      207.347     201.065      25.539
  H      210.997     199.582      22.496
  H      211.737     200.460      23.813
  H      210.861     201.322      22.571

 6  7  8  9  10  11  12  13  14  15  16  27  31  32  33  34  35 0
 6-311+G(2d,p)
 ****
 36  37 0
 6-311+G(2d,p)
 ****
 1  2  3  4  5  17  18  19  20  21  22  23  24  25 0
 3-21G
 ****
 26  28  29  30  38  39  40  41  42  43  44  45 0
 3-21G
 ****


