%nproc=1
%NoSave
%Mem=1900MB
#P OB98/GEN NMR

erre ene a

0 1
  C       59.836      36.366     431.930
  O       58.953      35.330     431.494
  P       58.955      34.890     429.954
  C       56.544      34.013     429.592
  O       57.922      33.678     429.748
  C       55.709      33.289     430.652
  O       55.611      34.063     431.872
  C       54.259      33.071     430.216
  O       54.039      32.138     429.177
  C       53.559      32.817     431.543
  O       53.696      31.455     431.958
  C       54.346      33.751     432.491
  N       53.599      34.971     432.825
  C       52.681      34.868     433.862
  O       52.457      33.813     434.456
  N       51.998      36.010     434.175
  C       52.123      37.216     433.542
  O       51.467      38.208     433.850
  C       53.091      37.262     432.436
  C       53.775      36.154     432.132
  O       60.299      34.690     429.337
  O       58.190      36.113     429.239
  H       53.306      31.390     432.853
  H       58.652      36.304     428.398
  H       51.339      35.960     434.934
  H       53.207      38.198     431.905
  H       54.495      36.169     431.321
  H       54.574      33.240     433.436
  H       52.488      33.027     431.480
  H       53.877      34.030     429.840
  H       56.199      32.345     430.898
  H       56.208      33.736     428.590
  H       56.429      35.100     429.669
  P       52.990      32.379     427.988
  C       52.038      29.979     428.262
  O       52.575      30.951     427.385
  O       53.298      33.469     427.017
  O       51.668      32.782     428.810
  H       51.157      33.429     428.275
  H       51.827      29.068     427.685
  H       51.104      30.337     428.700
  H       52.759      29.734     429.050
  H       59.703      36.530     432.979
  H       59.618      37.268     431.398
  H       60.848      36.075     431.740

 3  4  5  6  7  8  9  10  11  12  13  23  28  29  30  31  32 0
 6-311+G(2d,p)
 ****
 33  34 0
 6-311+G(2d,p)
 ****
 1  2  14  15  16  17  18  19  20  21  22  24  25  26  27 0
 3-21G
 ****
 35  36  37  38  39  40  41  42  43  44  45 0
 3-21G
 ****


