%nproc=1
%NoSave
%Mem=1900MB
#P OB98/GEN NMR

erre ene a

0 1
  C     -286.861     256.032    -170.485
  O     -285.839     256.263    -169.540
  H     -287.710     255.572    -169.969
  H     -286.518     255.345    -171.266
  H     -287.191     256.971    -170.931
  P     -284.399     256.759    -170.056
  C     -283.622     254.314    -169.956
  O     -283.363     255.642    -169.518
  C     -283.423     253.302    -168.825
  O     -282.026     252.918    -168.750
  C     -283.833     253.830    -167.443
  O     -284.628     252.847    -166.771
  C     -282.507     254.021    -166.721
  O     -282.653     253.972    -165.304
  C     -281.664     252.906    -167.354
  N     -280.230     253.098    -167.160
  C     -279.638     252.372    -166.123
  O     -280.324     251.646    -165.398
  N     -278.290     252.514    -165.898
  C     -277.601     253.343    -166.616
  N     -276.276     253.447    -166.343
  C     -278.198     254.168    -167.695
  C     -279.503     253.990    -167.915
  O     -284.054     258.163    -169.691
  O     -284.425     256.492    -171.634
  H     -283.084     253.124    -165.064
  H     -283.729     257.046    -172.075
  H     -277.589     254.857    -168.256
  H     -280.019     254.546    -168.693
  H     -281.944     251.924    -166.938
  H     -282.085     255.001    -166.987
  H     -284.402     254.757    -167.483
  H     -283.974     252.384    -169.078
  H     -275.906     252.867    -165.599
  H     -282.952     254.083    -170.795
  H     -275.645     254.070    -166.834
  H     -284.663     254.262    -170.303
  P     -286.164     252.745    -167.227
  C     -287.278     253.055    -164.903
  O     -287.013     252.173    -165.987
  O     -286.157     251.539    -168.275
  O     -286.691     254.003    -167.830
  H     -286.163     251.882    -169.185
  H     -287.847     252.542    -164.157
  H     -287.833     253.899    -165.257
  H     -286.353     253.388    -164.480

 6  7  8  9  10  11  12  13  14  15  16  26  30  31  32  33  35 0
 6-311+G(2d,p)
 ****
 37  38 0
 6-311+G(2d,p)
 ****
 1  2  3  4  5  17  18  19  20  21  22  23  24  25 0
 3-21G
 ****
 27  28  29  34  36  39  40  41  42  43  44  45  46 0
 3-21G
 ****


