%nproc=1
%NoSave
%Mem=1900MB
#P OB98/GEN NMR

erre ene a

0 1
  C      728.955     404.143     538.099
  O      729.697     403.038     538.562
  P      729.028     401.874     539.414
  C      727.912     401.666     541.736
  O      728.418     402.549     540.742
  C      726.821     402.372     542.564
  O      727.414     403.533     543.225
  C      725.635     402.869     541.697
  O      724.355     402.425     542.181
  C      725.846     404.362     541.674
  O      724.684     405.112     541.369
  C      726.483     404.620     543.047
  N      727.135     405.930     543.144
  C      726.399     406.961     543.736
  O      725.278     406.825     544.206
  N      727.000     408.184     543.743
  C      728.181     408.514     543.131
  O      728.612     409.656     543.094
  C      728.878     407.402     542.475
  C      728.344     406.160     542.532
  O      729.892     400.685     539.688
  O      727.698     401.532     538.576
  H      724.871     406.057     541.526
  H      727.089     402.277     538.460
  H      726.492     408.948     544.183
  H      729.809     407.627     541.961
  H      728.846     405.329     542.047
  H      725.747     404.548     543.852
  H      726.583     404.596     540.886
  H      725.704     402.466     540.688
  H      726.488     401.658     543.331
  H      728.733     401.368     542.399
  H      727.525     400.758     541.270
  P      723.118     402.038     541.227
  C      720.878     403.256     540.614
  O      722.245     403.362     540.962
  O      722.333     400.856     541.658
  O      723.801     401.783     539.799
  H      723.283     401.138     539.288
  H      720.595     404.129     540.005
  H      720.286     403.242     541.540
  H      720.694     402.327     540.053
  H      729.598     404.800     537.551
  H      728.537     404.667     538.933
  H      728.167     403.801     537.461

 3  4  5  6  7  8  9  10  11  12  13  23  28  29  30  31  32 0
 6-311+G(2d,p)
 ****
 33  34 0
 6-311+G(2d,p)
 ****
 1  2  14  15  16  17  18  19  20  21  22  24  25  26  27 0
 3-21G
 ****
 35  36  37  38  39  40  41  42  43  44  45 0
 3-21G
 ****


