%nproc=1
%NoSave
%Mem=1900MB
#P OB98/GEN NMR

erre ene a

0 1
  C       75.097       8.058     -34.193
  O       74.398       8.935     -33.338
  P       73.366      10.015     -33.916
  C       75.088      11.930     -34.010
  O       74.231      11.076     -34.761
  C       75.455      13.171     -34.833
  O       76.225      12.746     -36.001
  C       74.217      13.943     -35.338
  O       74.222      15.336     -35.024
  C       74.193      13.606     -36.821
  O       73.462      14.527     -37.608
  C       75.688      13.463     -37.131
  N       75.934      12.775     -38.396
  C       75.565      13.440     -39.562
  O       75.060      14.559     -39.593
  N       75.736      12.745     -40.728
  C       76.119      11.441     -40.834
  O       76.156      10.851     -41.906
  C       76.459      10.779     -39.565
  C       76.376      11.467     -38.424
  O       72.454      10.631     -32.909
  O       72.607       9.209     -35.075
  H       73.661      14.344     -38.545
  H       73.183       8.871     -35.783
  H       75.472      13.215     -41.580
  H       76.757       9.741     -39.619
  H       76.620      11.004     -37.474
  H       76.183      14.435     -37.164
  H       73.704      12.630     -36.934
  H       73.302      13.568     -34.865
  H       76.090      13.808     -34.211
  H       76.000      11.383     -33.761
  H       74.604      12.207     -33.068
  P       73.082      16.096     -34.196
  C       71.940      16.895     -36.393
  O       71.799      16.254     -35.141
  O       73.520      17.348     -33.512
  O       72.610      15.003     -33.124
  H       72.288      15.453     -32.319
  H       70.985      17.359     -36.657
  H       72.186      16.148     -37.153
  H       72.716      17.664     -36.367
  H       75.730       7.422     -33.611
  H       75.693       8.626     -34.876
  H       74.398       7.461     -34.740

 3  4  5  6  7  8  9  10  11  12  13  23  28  29  30  31  32 0
 6-311+G(2d,p)
 ****
 33  34 0
 6-311+G(2d,p)
 ****
 1  2  14  15  16  17  18  19  20  21  22  24  25  26  27 0
 3-21G
 ****
 35  36  37  38  39  40  41  42  43  44  45 0
 3-21G
 ****


