%nproc=1
%NoSave
%Mem=1900MB
#P OB98/GEN NMR

erre ene a

0 1
  C     -101.199     -53.218      11.773
  O     -100.063     -52.417      11.424
  P     -100.066     -51.686       9.999
  C     -100.334     -49.249       9.128
  O     -100.415     -50.139      10.232
  C     -100.231     -47.801       9.619
  O     -101.226     -47.506      10.624
  C      -98.888     -47.465      10.253
  O      -97.909     -47.144       9.272
  C      -99.244     -46.221      11.052
  O      -99.275     -45.071      10.182
  C     -100.654     -46.553      11.558
  N     -101.885     -45.717      16.392
  C     -102.039     -44.911      15.282
  N     -102.611     -43.704      15.491
  N     -101.664     -45.252      14.077
  C     -101.125     -46.491      14.017
  C     -100.917     -47.386      15.045
  C     -101.323     -46.988      16.376
  O     -101.199     -47.656      17.399
  N     -100.336     -48.541      14.592
  C     -100.208     -48.358      13.294
  N     -100.657     -47.123      12.895
  O     -101.400     -52.252       9.312
  O      -98.858     -51.961       9.165
  H      -99.352     -44.288      10.759
  H     -101.301     -52.245       8.343
  H     -102.186     -45.400      17.299
  H      -99.802     -49.088      12.602
  H     -101.309     -45.675      11.579
  H      -98.510     -46.006      11.834
  H     -102.970     -43.396      16.380
  H      -98.554     -48.265      10.925
  H     -102.761     -43.112      14.683
  H     -100.399     -47.139       8.760
  H     -101.211     -49.360       8.484
  H      -99.475     -49.526       8.510
  P      -96.717     -48.192       9.031
  C      -96.482     -50.372       7.640
  O      -97.344     -49.385       8.166
  O      -96.510     -48.834      10.483
  O      -95.458     -47.593       8.506
  H      -95.572     -49.080      10.608
  H      -97.088     -51.182       7.225
  H      -95.834     -50.782       8.422
  H      -95.868     -49.948       6.839
  H     -101.053     -53.639      12.746
  H     -101.314     -54.005      11.058
  H     -102.078     -52.608      11.776

 3  4  5  6  7  8  9  10  11  12  23  26  30  31 0
 6-311+G(2d,p)
 ****
 33  35  36  37  38 0
 6-311+G(2d,p)
 ****
 1  2  13  14  15  16  17  18  19  20  21  22  24  25 0
 3-21G
 ****
 27  28  29  32  34  39  40  41  42  43  44  45  46  47  48  49 0
 3-21G
 ****


