%nproc=1
%NoSave
%Mem=1900MB
#P OB98/GEN NMR

erre ene a

0 1
  C      250.332     977.115     460.876
  O      251.208     978.128     460.461
  P      252.687     978.231     461.059
  C      253.728     978.924     463.323
  O      252.524     978.716     462.581
  C      253.435     979.744     464.578
  O      252.319     979.182     465.315
  C      254.589     979.766     465.585
  O      255.779     980.417     465.206
  C      253.868     980.276     466.821
  O      253.753     981.710     466.787
  C      252.477     979.611     466.691
  N      252.322     978.489     467.634
  C      252.208     978.831     468.963
  O      252.207     979.972     469.389
  N      252.092     977.779     469.846
  C      252.133     976.449     469.505
  O      252.076     975.553     470.351
  C      252.303     976.144     468.073
  C      252.390     977.154     467.203
  O      253.654     979.041     460.265
  O      253.123     976.691     461.238
  H      253.417     982.002     467.645
  H      252.547     976.168     461.838
  H      252.000     978.000     470.820
  H      252.341     975.097     467.772
  H      252.496     976.976     466.142
  H      251.685     980.339     466.899
  H      254.428     980.028     467.744
  H      254.868     978.722     465.783
  H      253.153     980.777     464.267
  H      254.438     979.496     462.673
  H      254.187     977.972     463.555
  P      257.239     979.853     465.558
  C      258.309     978.728     467.642
  O      257.270     979.555     467.141
  O      258.410     980.596     464.980
  O      257.176     978.385     464.939
  H      258.079     978.125     464.655
  H      258.148     978.586     468.729
  H      259.279     979.207     467.494
  H      258.274     977.738     467.149
  H      249.399     977.218     460.363
  H      250.170     977.194     461.931
  H      250.759     976.160     460.651

 3  4  5  6  7  8  9  10  11  12  13  23  28  29  30  31  32 0
 6-311+G(2d,p)
 ****
 33  34 0
 6-311+G(2d,p)
 ****
 1  2  14  15  16  17  18  19  20  21  22  24  25  26  27 0
 3-21G
 ****
 35  36  37  38  39  40  41  42  43  44  45 0
 3-21G
 ****


