%nproc=1
%NoSave
%Mem=1900MB
#P OB98/GEN NMR

erre ene a

0 1
  C     1343.241     828.382    -506.580
  O     1343.424     826.980    -506.472
  P     1343.421     826.247    -505.049
  C     1345.019     826.199    -503.025
  O     1344.649     826.853    -504.250
  C     1346.452     825.677    -503.064
  O     1346.464     824.470    -503.917
  C     1347.511     826.641    -503.610
  O     1348.706     826.341    -502.892
  C     1347.600     826.219    -505.044
  O     1348.838     826.659    -505.663
  C     1347.480     824.703    -504.951
  N     1347.100     824.087    -506.220
  C     1348.147     823.566    -506.986
  O     1349.324     823.672    -506.619
  N     1347.847     822.949    -508.199
  C     1346.618     822.942    -508.607
  N     1346.369     822.295    -509.778
  C     1345.527     823.582    -507.896
  C     1345.805     824.131    -506.695
  O     1343.353     824.758    -505.112
  O     1342.166     826.905    -504.289
  H     1348.938     826.208    -506.515
  H     1341.314     826.511    -504.625
  H     1344.504     823.596    -508.309
  H     1345.074     824.630    -506.079
  H     1348.409     824.230    -504.586
  H     1346.787     826.652    -505.629
  H     1347.219     827.685    -503.456
  H     1346.715     825.320    -502.051
  H     1347.171     821.845    -510.228
  H     1344.310     825.386    -502.830
  H     1345.443     822.169    -510.171
  H     1344.896     826.937    -502.190
  P     1349.840     827.463    -502.664
  C     1351.791     828.360    -504.028
  O     1350.561     827.670    -504.084
  O     1350.763     827.199    -501.511
  O     1349.006     828.846    -502.460
  H     1349.605     829.518    -502.079
  H     1352.322     828.207    -505.023
  H     1352.443     827.987    -503.251
  H     1351.651     829.442    -503.892
  H     1343.276     828.668    -507.610
  H     1344.018     828.885    -506.043
  H     1342.291     828.650    -506.168

 3  4  5  6  7  8  9  10  11  12  13  23  27  28  29  30  32 0
 6-311+G(2d,p)
 ****
 34  35 0
 6-311+G(2d,p)
 ****
 1  2  14  15  16  17  18  19  20  21  22  24  25  26 0
 3-21G
 ****
 31  33  36  37  38  39  40  41  42  43  44  45  46 0
 3-21G
 ****


