%nproc=1
%NoSave
%Mem=1900MB
#P OB98/GEN NMR

erre ene a

0 1
  C      106.398     495.995    -148.500
  O      105.377     496.823    -149.013
  H      107.044     496.596    -147.854
  H      107.004     495.584    -149.312
  H      105.969     495.182    -147.906
  P      104.327     496.199    -150.050
  C      102.323     496.435    -148.443
  O      103.150     495.542    -149.178
  C      101.505     495.663    -147.401
  O      102.429     495.153    -146.409
  C      100.472     496.548    -146.687
  O       99.153     496.009    -146.727
  C      101.099     496.783    -145.318
  O      100.173     497.056    -144.285
  C      101.946     495.525    -145.104
  N      103.058     495.712    -144.174
  C      102.748     496.103    -142.875
  O      101.611     496.281    -142.443
  N      103.820     496.285    -142.040
  C      105.133     496.126    -142.371
  O      106.051     496.297    -141.577
  C      105.397     495.735    -143.763
  C      104.365     495.549    -144.588
  O      104.905     495.303    -151.094
  O      103.618     497.478    -150.703
  H      100.683     497.311    -143.490
  H      103.986     497.636    -151.591
  H      103.606     496.558    -141.094
  H      106.429     495.611    -144.064
  H      104.524     495.256    -145.623
  H      101.330     494.711    -144.723
  H      101.762     497.655    -145.391
  H      100.365     497.511    -147.200
  H      101.035     494.803    -147.888
  H      101.655     496.938    -149.151
  H      102.944     497.187    -147.943
  P       97.988     496.527    -147.689
  C       97.663     494.333    -149.085
  O       98.061     495.695    -149.053
  O       97.860     498.009    -147.806
  O       96.649     495.976    -146.976
  H       95.948     496.635    -147.159
  H       97.782     493.950    -150.077
  H       96.637     494.254    -148.793
  H       98.270     493.768    -148.409

 6  7  8  9  10  11  12  13  14  15  16  26  31  32  33  34  35 0
 6-311+G(2d,p)
 ****
 36  37 0
 6-311+G(2d,p)
 ****
 1  2  3  4  5  17  18  19  20  21  22  23  24  25 0
 3-21G
 ****
 27  28  29  30  38  39  40  41  42  43  44  45 0
 3-21G
 ****


