%nproc=1
%NoSave
%Mem=1900MB
#P OB98/GEN NMR

erre ene a

0 1
  C      336.768     214.351     612.396
  O      336.454     213.102     611.806
  P      336.804     212.906     610.250
  C      334.556     213.836     609.292
  O      335.396     212.694     609.495
  C      333.466     213.498     608.284
  O      334.037     213.253     606.980
  C      332.664     212.243     608.604
  O      331.645     212.491     609.567
  C      332.038     211.933     607.258
  O      330.898     212.773     607.025
  C      333.179     212.300     606.293
  N      333.800     208.810     602.683
  C      333.021     209.955     602.684
  N      332.261     210.165     601.591
  N      332.997     210.820     603.668
  C      333.818     210.479     604.700
  C      334.640     209.374     604.813
  C      334.639     208.433     603.729
  O      335.265     207.371     603.680
  N      335.312     209.377     605.997
  C      334.914     210.477     606.614
  N      333.964     211.152     605.881
  O      337.467     211.459     610.195
  O      337.697     213.947     609.677
  H      330.318     212.676     607.805
  H      337.957     211.338     609.371
  H      333.789     208.178     601.895
  H      335.250     210.814     607.585
  H      332.801     212.796     605.384
  H      331.698     210.896     607.181
  H      332.189     209.504     600.833
  H      333.322     211.428     608.910
  H      331.629     210.958     601.587
  H      332.799     214.372     608.214
  H      335.163     214.663     608.928
  H      334.116     214.119     610.252
  P      331.990     212.117     611.100
  C      331.831     209.568     610.623
  O      331.336     210.681     611.340
  O      331.061     213.126     611.939
  O      333.440     212.250     611.460
  H      331.449     213.292     612.811
  H      331.463     208.658     611.095
  H      332.928     209.551     610.642
  H      331.473     209.602     609.591
  H      336.483     214.340     613.427
  H      336.238     215.129     611.887
  H      337.821     214.527     612.319

 3  4  5  6  7  8  9  10  11  12  23  26  30  31 0
 6-311+G(2d,p)
 ****
 33  35  36  37  38 0
 6-311+G(2d,p)
 ****
 1  2  13  14  15  16  17  18  19  20  21  22  24  25 0
 3-21G
 ****
 27  28  29  32  34  39  40  41  42  43  44  45  46  47  48  49 0
 3-21G
 ****


