%nproc=1
%NoSave
%Mem=1900MB
#P OB98/GEN NMR

erre ene a

0 1
  C     -592.623     -54.504    -869.516
  O     -592.839     -55.269    -870.688
  P     -594.146     -56.200    -870.737
  C     -592.837     -57.792    -872.343
  O     -593.666     -57.664    -871.199
  C     -592.020     -59.091    -872.259
  O     -591.139     -59.060    -871.110
  C     -592.888     -60.335    -872.077
  O     -593.463     -60.743    -873.309
  C     -591.873     -61.331    -871.521
  O     -591.122     -61.940    -872.577
  C     -590.984     -60.421    -870.645
  N     -591.260     -60.552    -869.224
  C     -590.464     -61.473    -868.528
  O     -589.604     -62.152    -869.069
  N     -590.727     -61.598    -867.196
  C     -591.739     -60.973    -866.503
  O     -591.972     -61.165    -865.317
  C     -592.563     -60.034    -867.301
  C     -592.294     -59.873    -868.600
  O     -594.964     -55.647    -872.006
  O     -594.961     -56.182    -869.493
  H     -591.766     -62.271    -873.235
  H     -595.924     -55.716    -871.833
  H     -590.162     -62.240    -866.673
  H     -593.358     -59.504    -866.775
  H     -592.903     -59.201    -869.198
  H     -589.916     -60.678    -870.809
  H     -592.364     -62.134    -870.963
  H     -593.658     -60.142    -871.330
  H     -591.395     -59.178    -873.165
  H     -592.155     -56.926    -872.390
  H     -593.462     -57.789    -873.249
  P     -594.860     -60.051    -873.727
  C     -595.314     -62.100    -875.290
  O     -595.780     -61.253    -874.245
  O     -594.406     -59.265    -875.052
  O     -595.422     -59.190    -872.656
  H     -593.707     -59.731    -875.555
  H     -594.239     -62.283    -875.226
  H     -595.558     -61.662    -876.255
  H     -595.831     -63.065    -875.195
  H     -591.722     -53.936    -869.622
  H     -592.535     -55.158    -868.674
  H     -593.448     -53.840    -869.367

 3  4  5  6  7  8  9  10  11  12  13  23  28  29  30  31  32 0
 6-311+G(2d,p)
 ****
 33  34 0
 6-311+G(2d,p)
 ****
 1  2  14  15  16  17  18  19  20  21  22  24  25  26 0
 3-21G
 ****
 27  35  36  37  38  39  40  41  42  43  44  45 0
 3-21G
 ****


