%nproc=1
%NoSave
%Mem=1900MB
#P OB98/GEN NMR

erre ene a

0 1
  C     -326.233      52.413    -582.676
  O     -326.801      53.619    -583.195
  P     -328.208      54.070    -582.560
  C     -329.594      52.491    -584.090
  O     -329.250      52.863    -582.768
  C     -329.859      50.987    -584.179
  O     -330.830      50.543    -583.210
  C     -330.392      50.551    -585.543
  O     -329.328      50.448    -586.472
  C     -331.025      49.204    -585.207
  O     -330.047      48.143    -585.204
  C     -331.566      49.432    -583.788
  N     -336.031      47.763    -582.023
  C     -334.783      47.144    -582.033
  N     -334.724      45.914    -581.477
  N     -333.708      47.683    -582.552
  C     -333.919      48.917    -583.068
  C     -335.093      49.638    -583.095
  C     -336.274      49.032    -582.530
  O     -337.389      49.548    -582.474
  N     -334.903      50.877    -583.656
  C     -333.653      50.847    -584.085
  N     -332.993      49.701    -583.695
  O     -328.720      55.205    -583.573
  O     -328.092      54.590    -581.166
  H     -330.496      47.290    -585.054
  H     -328.676      56.077    -583.137
  H     -336.820      47.299    -581.624
  H     -333.172      51.632    -584.647
  H     -331.385      48.561    -583.137
  H     -331.786      48.919    -585.939
  H     -335.509      45.438    -581.060
  H     -331.160      51.250    -585.892
  H     -333.823      45.447    -581.466
  H     -328.911      50.471    -583.970
  H     -328.789      52.765    -584.776
  H     -330.475      53.065    -584.402
  P     -329.121      51.651    -587.515
  C     -330.817      50.570    -589.169
  O     -330.445      51.721    -588.427
  O     -327.994      51.089    -588.507
  O     -328.706      52.942    -586.896
  H     -327.338      51.785    -588.681
  H     -331.908      50.570    -589.287
  H     -330.516      49.643    -588.666
  H     -330.356      50.614    -590.160
  H     -325.305      52.215    -583.170
  H     -326.908      51.600    -582.844
  H     -326.062      52.523    -581.626

 3  4  5  6  7  8  9  10  11  12  23  26  30  31 0
 6-311+G(2d,p)
 ****
 33  35  36  37  38 0
 6-311+G(2d,p)
 ****
 1  2  13  14  15  16  17  18  19  20  21  22  24  25 0
 3-21G
 ****
 27  28  29  32  34  39  40  41  42  43  44  45  46  47  48  49 0
 3-21G
 ****


