%nproc=1
%NoSave
%Mem=1900MB
#P OB98/GEN NMR

erre ene a

0 1
  C      -53.426     -77.882      82.580
  O      -52.736     -76.864      81.876
  P      -53.421     -76.317      80.529
  C      -54.445     -74.232      81.721
  O      -54.669     -75.427      80.990
  C      -54.561     -73.027      80.786
  O      -55.840     -73.029      80.122
  C      -54.447     -71.679      81.485
  O      -53.088     -71.347      81.703
  C      -55.154     -70.762      80.493
  O      -54.273     -70.396      79.415
  C      -56.297     -71.655      79.992
  N      -60.737     -69.241      80.009
  C      -59.626     -69.052      79.209
  N      -59.734     -68.112      78.245
  N      -58.514     -69.725      79.340
  C      -58.546     -70.621      80.353
  C      -59.578     -70.889      81.222
  C      -60.819     -70.175      81.032
  O      -61.862     -70.374      81.649
  N      -59.230     -71.850      82.134
  C      -58.001     -72.183      81.796
  N      -57.547     -71.483      80.709
  O      -54.085     -77.629      79.904
  O      -52.493     -75.631      79.577
  H      -53.450     -70.027      79.783
  H      -53.517     -78.005      79.204
  H      -61.572     -68.706      79.850
  H      -57.409     -72.938      82.291
  H      -56.515     -71.488      78.930
  H      -55.483     -69.829      80.958
  H      -60.550     -67.539      78.101
  H      -54.999     -71.693      82.432
  H      -58.928     -67.956      77.652
  H      -53.787     -73.126      80.015
  H      -53.441     -74.257      82.153
  H      -55.178     -74.164      82.531
  P      -52.486     -71.620      83.165
  C      -50.803     -73.474      82.484
  O      -51.979     -73.137      83.193
  O      -53.784     -71.629      84.102
  O      -51.493     -70.604      83.623
  H      -53.566     -71.233      84.966
  H      -50.317     -74.312      82.989
  H      -50.104     -72.635      82.435
  H      -51.071     -73.779      81.470
  H      -52.867     -78.155      83.451
  H      -53.541     -78.738      81.948
  H      -54.390     -77.522      82.873

 3  4  5  6  7  8  9  10  11  12  23  26  30  31 0
 6-311+G(2d,p)
 ****
 33  35  36  37  38 0
 6-311+G(2d,p)
 ****
 1  2  13  14  15  16  17  18  19  20  21  22  24  25 0
 3-21G
 ****
 27  28  29  32  34  39  40  41  42  43  44  45  46  47  48  49 0
 3-21G
 ****


