%nproc=1
%NoSave
%Mem=1900MB
#P OB98/GEN NMR

erre ene a

0 1
  C     -114.169     104.454    -218.904
  O     -113.746     103.340    -218.142
  H     -115.105     104.834    -218.484
  H     -114.344     104.160    -219.941
  H     -113.418     105.247    -218.862
  P     -112.412     102.593    -218.630
  C     -110.847     103.977    -217.086
  O     -111.202     103.626    -218.417
  C     -109.369     103.673    -216.855
  O     -108.590     104.144    -217.979
  C     -108.778     104.367    -215.632
  O     -109.118     103.711    -214.426
  C     -107.291     104.286    -215.949
  O     -106.737     103.021    -215.557
  C     -107.269     104.452    -217.485
  N     -106.830     105.780    -217.887
  C     -105.455     105.941    -218.057
  O     -104.646     105.032    -217.879
  N     -105.038     107.200    -218.401
  C     -105.834     108.294    -218.551
  O     -105.387     109.412    -218.786
  C     -107.283     108.064    -218.377
  C     -107.706     106.839    -218.048
  O     -112.590     102.537    -220.219
  O     -112.194     101.239    -218.040
  H     -112.863     101.643    -220.495
  H     -107.215     102.343    -216.076
  H     -104.049     107.335    -218.511
  H     -107.944     108.915    -218.493
  H     -108.762     106.653    -217.894
  H     -106.585     103.717    -217.936
  H     -106.728     105.057    -215.422
  H     -109.078     105.423    -215.613
  H     -109.245     102.584    -216.777
  H     -111.447     103.393    -216.379
  H     -111.058     105.042    -216.929
  P     -109.025     104.539    -213.053
  C     -111.096     105.901    -213.936
  O     -109.839     105.903    -213.288
  O     -107.493     104.990    -213.066
  O     -109.448     103.762    -211.853
  H     -107.161     105.189    -213.959
  H     -111.469     106.902    -213.993
  H     -111.782     105.295    -213.382
  H     -110.987     105.504    -214.924

 6  7  8  9  10  11  12  13  14  15  16  27  31  32  33  34  35 0
 6-311+G(2d,p)
 ****
 36  37 0
 6-311+G(2d,p)
 ****
 1  2  3  4  5  17  18  19  20  21  22  23  24  25 0
 3-21G
 ****
 26  28  29  30  38  39  40  41  42  43  44  45 0
 3-21G
 ****


