%nproc=1
%NoSave
%Mem=1900MB
#P OB98/GEN NMR

erre ene a

0 1
  C       -3.062      49.814     -62.758
  O       -4.430      50.149     -62.796
  P       -5.220      50.507     -61.448
  C       -6.762      52.006     -62.863
  O       -6.693      50.962     -61.898
  C       -7.591      51.558     -64.063
  O       -8.893      51.073     -63.645
  C       -7.906      52.670     -65.051
  O       -6.825      53.232     -65.763
  C       -9.019      52.036     -65.869
  O       -8.498      51.159     -66.866
  C       -9.778      51.231     -64.782
  N      -11.035      51.873     -64.407
  C      -12.186      51.328     -64.962
  O      -12.184      50.364     -65.726
  N      -13.361      51.950     -64.634
  C      -13.487      53.067     -63.861
  O      -14.568      53.600     -63.645
  C      -12.233      53.608     -63.316
  C      -11.081      52.998     -63.608
  O       -4.525      51.464     -60.540
  O       -5.496      49.072     -60.792
  H       -8.077      51.711     -67.553
  H       -6.022      48.467     -61.343
  H      -14.207      51.579     -65.036
  H      -12.300      54.487     -62.688
  H      -10.144      53.380     -63.218
  H      -10.005      50.221     -65.146
  H       -9.624      52.788     -66.385
  H       -8.354      53.504     -64.495
  H       -7.075      50.723     -64.544
  H       -5.748      52.245     -63.199
  H       -7.182      52.905     -62.400
  P       -6.813      54.740     -66.302
  C       -4.223      54.680     -66.376
  O       -5.420      54.996     -67.052
  O       -7.290      55.794     -65.359
  O       -7.838      54.646     -67.536
  H       -8.292      55.503     -67.637
  H       -3.379      54.958     -67.013
  H       -4.170      53.606     -66.176
  H       -4.152      55.239     -65.439
  H       -2.717      49.609     -63.750
  H       -2.924      48.947     -62.146
  H       -2.506      50.631     -62.349

 3  4  5  6  7  8  9  10  11  12  13  23  28  29  30  31  32 0
 6-311+G(2d,p)
 ****
 33  34 0
 6-311+G(2d,p)
 ****
 1  2  14  15  16  17  18  19  20  21  22  24  25  26  27 0
 3-21G
 ****
 35  36  37  38  39  40  41  42  43  44  45 0
 3-21G
 ****


