%nproc=1
%NoSave
%Mem=1900MB
#P OB98/GEN NMR

erre ene a

0 1
  C     -889.210      86.213     333.351
  O     -890.280      85.568     332.660
  P     -891.320      86.483     331.853
  C     -891.680      84.598     330.129
  O     -892.290      85.518     331.029
  C     -892.720      83.738     329.412
  O     -893.510      82.962     330.354
  C     -893.730      84.555     328.623
  O     -893.140      85.064     327.428
  C     -894.840      83.540     328.421
  O     -894.560      82.669     327.313
  C     -894.800      82.739     329.744
  N     -895.880      83.097     330.665
  C     -897.160      82.708     330.273
  O     -897.350      82.139     329.195
  N     -898.210      82.990     331.111
  C     -898.000      83.602     332.233
  N     -899.090      83.860     333.023
  C     -896.660      84.035     332.675
  C     -895.660      83.756     331.842
  O     -890.730      87.613     331.070
  O     -892.290      87.022     333.027
  H     -895.230      81.967     327.346
  H     -892.630      87.897     332.765
  H     -896.540      84.541     333.629
  H     -894.650      84.046     332.095
  H     -894.880      81.674     329.540
  H     -895.810      84.030     328.212
  H     -894.090      85.391     329.234
  H     -892.200      83.051     328.752
  H     -900.000      83.554     332.693
  H     -890.990      83.951     330.695
  H     -899.010      84.274     333.933
  H     -891.060      85.156     329.418
  P     -892.870      86.642     327.346
  C     -890.600      86.623     326.067
  O     -891.990      86.915     326.024
  O     -891.830      86.876     328.538
  O     -894.080      87.500     327.499
  H     -891.980      87.755     328.931
  H     -890.230      86.560     325.038
  H     -890.410      85.677     326.568
  H     -890.080      87.426     326.587
  H     -888.605      85.477     333.838
  H     -889.611      86.885     334.081
  H     -888.612      86.760     332.652

 3  4  5  6  7  8  9  10  11  12  13  23  27  28  29  30  32 0
 6-311+G(2d,p)
 ****
 34  35 0
 6-311+G(2d,p)
 ****
 1  2  14  15  16  17  18  19  20  21  22  24  25  26 0
 3-21G
 ****
 31  33  36  37  38  39  40  41  42  43  44  45  46 0
 3-21G
 ****


