%nproc=1
%NoSave
%Mem=1900MB
#P OB98/GEN NMR

erre ene a

0 1
  C     -952.335    -889.590    -747.974
  O     -952.858    -890.560    -748.863
  P     -954.415    -890.530    -749.216
  C     -953.809    -892.090    -751.210
  O     -954.759    -891.750    -750.207
  C     -954.203    -893.320    -752.004
  O     -954.101    -894.500    -751.172
  C     -955.650    -893.290    -752.519
  O     -955.909    -892.700    -753.803
  C     -955.951    -894.790    -752.655
  O     -955.447    -895.270    -753.933
  C     -955.168    -895.440    -751.533
  N     -957.903    -899.060    -749.173
  C     -957.186    -899.070    -750.312
  N     -956.491    -898.070    -750.886
  C     -956.552    -896.980    -750.089
  C     -957.245    -896.810    -748.927
  C     -957.945    -897.920    -748.444
  N     -958.684    -897.910    -747.278
  N     -957.092    -895.490    -748.430
  C     -956.358    -894.890    -749.313
  N     -955.996    -895.740    -750.354
  O     -954.965    -889.200    -749.646
  O     -955.086    -891.010    -747.836
  H     -954.484    -895.090    -753.935
  H     -955.927    -890.500    -747.708
  H     -957.161    -900.000    -750.869
  H     -956.058    -893.840    -749.273
  H     -954.658    -896.370    -751.804
  H     -957.003    -894.990    -752.653
  H     -956.319    -892.860    -751.768
  H     -953.511    -893.460    -752.843
  H     -952.840    -892.270    -750.717
  H     -959.201    -898.750    -747.037
  H     -958.780    -897.030    -746.775
  H     -953.645    -891.200    -751.805
  P     -956.770    -891.350    -753.922
  C     -955.115    -890.560    -755.849
  O     -956.460    -890.810    -755.413
  O     -956.536    -890.330    -752.850
  O     -958.267    -891.880    -754.055
  H     -958.455    -892.360    -754.842
  H     -955.142    -890.400    -756.926
  H     -954.480    -891.410    -755.604
  H     -954.753    -889.640    -755.359
  H     -951.285    -889.752    -747.847
  H     -952.826    -889.673    -747.027
  H     -952.499    -888.612    -748.376

 3  4  5  6  7  8  9  10  11  12  22  25  29  30  31  32 0
 6-311+G(2d,p)
 ****
 33  36  37 0
 6-311+G(2d,p)
 ****
 1  2  13  14  15  16  17  18  19  20  21  23  24  26 0
 3-21G
 ****
 27  28  34  35  38  39  40  41  42  43  44  45  46  47  48 0
 3-21G
 ****


