%nproc=1
%NoSave
%Mem=1900MB
#P OB98/GEN NMR

erre ene a

0 1
  C      146.813    -248.605      78.641
  O      148.105    -249.060      78.299
  H      146.728    -247.549      78.367
  H      146.658    -248.702      79.718
  H      146.049    -249.170      78.101
  P      148.372    -250.637      78.431
  C      149.746    -250.446      80.625
  O      148.571    -250.938      79.994
  C      149.835    -250.971      82.056
  O      148.725    -250.480      82.842
  C      149.795    -252.491      82.169
  O      151.072    -253.072      81.939
  C      149.373    -252.652      83.620
  O      150.501    -252.411      84.486
  C      148.339    -251.528      83.775
  N      144.405    -254.291      85.380
  C      145.659    -254.130      85.935
  N      145.908    -254.806      87.077
  N      146.594    -253.374      85.417
  C      146.210    -252.768      84.267
  C      144.998    -252.849      83.621
  C      143.972    -253.681      84.211
  O      142.836    -253.844      83.774
  N      144.979    -252.081      82.488
  C      146.182    -251.551      82.434
  N      146.975    -251.940      83.488
  O      149.849    -250.817      77.830
  O      147.390    -251.514      77.726
  H      151.144    -253.126      84.315
  H      149.891    -251.669      77.354
  H      143.727    -254.896      85.817
  H      146.532    -250.882      81.660
  H      148.339    -251.095      84.779
  H      149.006    -253.655      83.846
  H      145.252    -255.443      87.505
  H      149.028    -252.925      81.518
  H      146.810    -254.675      87.523
  H      150.755    -250.573      82.504
  H      149.713    -249.353      80.643
  H      150.620    -250.768      80.050
  P      151.134    -254.395      81.027
  C      150.510    -255.798      83.125
  O      150.208    -255.474      81.769
  O      152.618    -254.941      81.284
  O      150.860    -254.175      79.577
  H      152.897    -255.503      80.539
  H      149.812    -256.526      83.482
  H      150.443    -254.915      83.726
  H      151.502    -256.196      83.184

 6  7  8  9  10  11  12  13  14  15  26  29  33  34 0
 6-311+G(2d,p)
 ****
 36  38  39  40  41 0
 6-311+G(2d,p)
 ****
 1  2  3  4  5  16  17  18  19  20  21  22  23  24  25 0
 3-21G
 ****
 27  28  30  31  32  35  37  42  43  44  45  46  47 0
 3-21G
 ****
 48  49 0
 3-21G
 ****


