%nproc=1
%NoSave
%Mem=1900MB
#P OB98/GEN NMR

erre ene a

0 1
  C      101.562    -221.498     -75.664
  O      102.541    -221.751     -76.671
  P      102.461    -221.236     -78.178
  C      102.840    -218.642     -77.950
  O      103.354    -219.916     -78.315
  C      103.973    -217.620     -77.763
  O      104.744    -217.987     -76.577
  C      104.949    -217.602     -78.947
  O      105.351    -216.290     -79.335
  C      106.043    -218.558     -78.501
  O      107.263    -218.392     -79.206
  C      106.093    -218.306     -76.997
  N      110.143    -221.207     -75.875
  C      110.009    -220.228     -76.840
  N      111.085    -219.991     -77.619
  N      108.911    -219.546     -77.030
  C      107.886    -219.930     -76.235
  C      107.891    -220.901     -75.258
  C      109.127    -221.613     -75.019
  O      109.305    -222.480     -74.164
  N      106.662    -221.004     -74.650
  C      105.913    -220.115     -75.275
  N      106.615    -219.432     -76.240
  O      101.096    -221.191     -78.781
  O      103.317    -222.332     -79.000
  H      107.073    -218.466     -80.161
  H      102.907    -222.392     -79.888
  H      111.019    -221.687     -75.757
  H      104.868    -219.918     -75.058
  H      106.729    -217.455     -76.742
  H      105.692    -219.580     -78.709
  H      111.917    -220.562     -77.608
  H      104.471    -218.000     -79.852
  H      110.913    -219.437     -78.458
  H      103.530    -216.632     -77.590
  H      102.314    -218.792     -77.000
  H      102.109    -218.295     -78.682
  P      104.586    -215.248     -80.272
  C      103.098    -214.289     -78.414
  O      104.101    -214.014     -79.375
  O      103.210    -215.969     -80.660
  O      105.331    -214.860     -81.509
  H      103.164    -216.096     -81.625
  H      102.674    -213.341     -78.068
  H      103.535    -214.813     -77.564
  H      102.299    -214.893     -78.854
  H      101.866    -221.959     -74.747
  H      100.621    -221.903     -75.972
  H      101.465    -220.442     -75.518

 3  4  5  6  7  8  9  10  11  12  23  26  30  31 0
 6-311+G(2d,p)
 ****
 33  35  36  37  38 0
 6-311+G(2d,p)
 ****
 1  2  13  14  15  16  17  18  19  20  21  22  24  25 0
 3-21G
 ****
 27  28  29  32  34  39  40  41  42  43  44  45  46  47  48  49 0
 3-21G
 ****


