%nproc=1
%NoSave
%Mem=1900MB
#P OB98/GEN NMR

erre ene a

0 1
  C     -299.647      79.524    -110.214
  O     -299.712      80.927    -110.366
  H     -299.473      79.261    -109.167
  H     -300.599      79.092    -110.534
  H     -298.846      79.116    -110.839
  P     -298.442      81.758    -109.848
  C     -300.094      83.094    -108.363
  O     -299.010      83.148    -109.278
  C     -300.144      84.369    -107.531
  O     -299.043      84.401    -106.599
  C     -300.028      85.659    -108.333
  O     -301.256      86.011    -108.955
  C     -299.656      86.643    -107.233
  O     -300.840      87.041    -106.517
  C     -298.752      85.796    -106.324
  N     -294.258      86.785    -104.044
  C     -295.502      86.605    -103.545
  N     -296.649      86.358    -104.208
  C     -296.429      86.282    -105.531
  C     -295.218      86.442    -106.186
  C     -294.095      86.713    -105.385
  N     -292.834      86.910    -105.905
  N     -295.373      86.283    -107.545
  C     -296.655      86.030    -107.713
  N     -297.336      86.027    -106.524
  O     -297.700      82.192    -111.201
  O     -297.524      81.019    -108.934
  H     -300.541      87.582    -105.762
  H     -296.736      82.179    -111.051
  H     -295.586      86.667    -102.462
  H     -297.129      85.840    -108.668
  H     -298.979      85.964    -105.264
  H     -299.182      87.551    -107.610
  H     -299.211      85.603    -109.060
  H     -301.074      84.357    -106.948
  H     -299.964      82.235    -107.695
  H     -292.047      86.902    -105.280
  H     -292.721      86.846    -106.912
  H     -301.025      82.969    -108.925
  P     -301.238      86.254    -110.543
  C     -302.693      88.304    -109.896
  O     -302.450      87.263    -110.837
  O     -301.769      84.862    -111.128
  O     -299.913      86.626    -111.112
  H     -301.439      84.736    -112.038
  H     -303.525      88.892    -110.222
  H     -301.825      88.925    -109.819
  H     -302.911      87.877    -108.940

 6  7  8  9  10  11  12  13  14  15  25  28  32  33  34  35 0
 6-311+G(2d,p)
 ****
 36  39  40 0
 6-311+G(2d,p)
 ****
 1  2  3  4  5  16  17  18  19  20  21  22  23  24 0
 3-21G
 ****
 26  27  29  30  31  37  38  41  42  43  44  45  46  47  48 0
 3-21G
 ****


