%nproc=1
%NoSave
%Mem=1900MB
#P OB98/GEN NMR

erre ene a

0 1
  C      453.134     128.152    -118.904
  O      453.283     128.562    -117.555
  P      452.509     127.817    -116.359
  C      450.304     129.115    -116.735
  O      451.392     128.856    -115.863
  C      450.091     130.624    -116.887
  O      449.050     130.850    -117.870
  C      449.671     131.335    -115.593
  O      450.268     132.637    -115.611
  C      448.163     131.433    -115.739
  O      447.604     132.461    -114.930
  C      448.035     131.663    -117.249
  N      446.707     131.322    -117.749
  C      445.698     132.277    -117.614
  O      445.917     133.355    -117.065
  N      444.449     131.989    -118.106
  C      444.206     130.819    -118.611
  N      442.971     130.603    -119.137
  C      445.214     129.742    -118.675
  C      446.433     130.070    -118.254
  O      453.387     127.286    -115.282
  O      451.627     126.706    -117.092
  H      446.662     132.559    -115.167
  H      452.127     125.868    -117.263
  H      444.956     128.775    -119.078
  H      447.245     129.356    -118.287
  H      448.270     132.705    -117.495
  H      447.705     130.484    -115.438
  H      449.993     130.805    -114.692
  H      451.018     131.066    -117.282
  H      442.369     131.415    -119.233
  H      449.401     128.675    -116.305
  H      442.815     129.867    -119.817
  H      450.487     128.646    -117.707
  P      450.893     133.208    -114.247
  C      448.930     134.885    -113.988
  O      450.327     134.691    -114.023
  O      452.413     133.494    -114.683
  O      450.868     132.289    -113.071
  H      452.986     133.455    -113.890
  H      448.728     135.945    -113.821
  H      448.480     134.312    -113.169
  H      448.477     134.591    -114.939
  H      453.732     128.777    -119.535
  H      452.106     128.235    -119.191
  H      453.452     127.135    -119.005

 3  4  5  6  7  8  9  10  11  12  13  23  27  28  29  30  32 0
 6-311+G(2d,p)
 ****
 34  35 0
 6-311+G(2d,p)
 ****
 1  2  14  15  16  17  18  19  20  21  22  24  25  26 0
 3-21G
 ****
 31  33  36  37  38  39  40  41  42  43  44  45  46 0
 3-21G
 ****


