%nproc=1
%NoSave
%Mem=1900MB
#P OB98/GEN NMR

erre ene a

0 1
  C     -318.478    -417.655    -133.798
  O     -319.033    -416.400    -133.442
  P     -318.679    -415.067    -134.262
  C     -316.862    -414.388    -132.569
  O     -317.144    -414.737    -133.920
  C     -317.132    -412.907    -132.305
  O     -316.668    -412.551    -130.977
  C     -316.464    -411.944    -133.306
  O     -317.355    -410.836    -133.456
  C     -315.213    -411.526    -132.559
  O     -314.646    -410.322    -133.071
  C     -315.743    -411.447    -131.121
  N     -314.669    -411.501    -130.132
  C     -314.504    -410.371    -129.319
  O     -315.200    -409.370    -129.503
  N     -313.530    -410.387    -128.355
  C     -312.709    -411.391    -128.286
  N     -311.762    -411.352    -127.305
  C     -312.763    -412.550    -129.206
  C     -313.769    -412.543    -130.094
  O     -319.623    -413.929    -134.069
  O     -318.587    -415.570    -135.781
  H     -315.316    -409.606    -132.985
  H     -319.495    -415.698    -136.159
  H     -312.033    -413.335    -129.146
  H     -313.888    -413.341    -130.804
  H     -316.312    -410.522    -130.967
  H     -314.451    -412.315    -132.641
  H     -316.251    -412.405    -134.275
  H     -318.224    -412.756    -132.318
  H     -311.773    -410.552    -126.685
  H     -315.803    -414.595    -132.380
  H     -311.139    -412.123    -127.113
  H     -317.453    -415.018    -131.890
  P     -317.875    -410.375    -134.901
  C     -315.912    -408.748    -135.130
  O     -316.605    -409.838    -135.711
  O     -319.053    -409.449    -134.888
  O     -318.233    -411.752    -135.649
  H     -318.798    -411.562    -136.427
  H     -314.927    -408.655    -135.606
  H     -315.777    -408.900    -134.055
  H     -316.474    -407.823    -135.296
  H     -318.840    -418.408    -133.129
  H     -317.411    -417.604    -133.734
  H     -318.764    -417.900    -134.799

 3  4  5  6  7  8  9  10  11  12  13  23  27  28  29  30  32 0
 6-311+G(2d,p)
 ****
 34  35 0
 6-311+G(2d,p)
 ****
 1  2  14  15  16  17  18  19  20  21  22  24  25  26 0
 3-21G
 ****
 31  33  36  37  38  39  40  41  42  43  44  45  46 0
 3-21G
 ****


