%nproc=1
%NoSave
%Mem=1900MB
#P OB98/GEN NMR

erre ene a

0 1
  C      962.435    -892.380     178.178
  O      961.448    -893.390     177.911
  P      960.755    -893.380     176.458
  C      961.757    -895.560     175.419
  O      961.769    -894.130     175.471
  C      961.039    -896.030     174.144
  O      961.656    -895.450     173.010
  C      961.075    -897.520     173.957
  O      960.122    -898.180     174.796
  C      960.752    -897.640     172.466
  O      959.334    -897.670     172.241
  C      961.389    -896.340     171.876
  N      962.579    -896.600     171.109
  C      962.377    -897.240     169.865
  O      961.244    -897.530     169.535
  N      963.466    -897.510     169.096
  C      964.667    -897.240     169.512
  N      965.705    -897.540     168.680
  C      964.917    -896.590     170.812
  C      963.854    -896.310     171.556
  O      960.864    -891.860     176.023
  O      959.349    -893.880     176.449
  H      959.219    -897.670     171.261
  H      960.137    -891.610     175.398
  H      965.937    -896.360     171.109
  H      963.942    -895.840     172.537
  H      960.674    -895.840     171.244
  H      961.176    -898.560     172.027
  H      962.091    -897.920     174.151
  H      959.994    -895.670     174.190
  H      965.496    -898.000     167.817
  H      961.223    -895.920     176.310
  H      966.674    -897.330     168.919
  H      962.773    -895.940     175.451
  P      960.644    -898.780     176.170
  C      959.490    -896.870     177.443
  O      960.702    -897.510     177.176
  O      962.198    -899.030     175.887
  O      959.934    -900.000     176.703
  H      962.589    -899.510     176.636
  H      959.647    -896.120     178.239
  H      958.721    -897.550     177.744
  H      959.151    -896.300     176.534
  H      962.811    -892.503     179.172
  H      961.990    -891.412     178.082
  H      963.239    -892.474     177.479

 3  4  5  6  7  8  9  10  11  12  13  21  23  27  28  29  30  32 0
 6-311+G(2d,p)
 ****
 34  35 0
 6-311+G(2d,p)
 ****
 1  2  14  15  16  17  18  19  20  22  24  25  26 0
 3-21G
 ****
 31  33  36  37  38  39  40  41  42  43  44  45  46 0
 3-21G
 ****


