%nproc=1
%NoSave
%Mem=1900MB
#P OB98/GEN NMR

erre ene a

0 1
  C     -678.412      41.110    -418.358
  O     -677.222      41.695    -417.871
  H     -679.158      41.109    -417.559
  H     -678.231      40.081    -418.670
  H     -678.803      41.694    -419.202
  P     -675.990      41.766    -418.896
  C     -674.932      39.504    -418.158
  O     -675.567      40.241    -419.199
  C     -674.942      38.013    -418.468
  O     -676.289      37.559    -418.745
  C     -674.092      37.617    -419.677
  O     -672.731      37.478    -419.318
  C     -674.735      36.295    -420.074
  O     -674.268      35.209    -419.252
  C     -676.230      36.577    -419.816
  N     -678.288      35.214    -424.216
  C     -677.681      34.447    -423.245
  N     -677.559      33.126    -423.504
  N     -677.226      34.927    -422.112
  C     -677.390      36.267    -422.007
  C     -677.987      37.134    -422.899
  C     -678.516      36.579    -424.129
  O     -679.123      37.199    -425.003
  N     -677.980      38.420    -422.426
  C     -677.339      38.341    -421.273
  N     -676.947      37.056    -420.984
  O     -674.778      42.307    -417.991
  O     -676.205      42.626    -420.098
  H     -673.300      35.271    -419.158
  H     -674.174      42.825    -418.550
  H     -678.634      34.782    -425.060
  H     -677.140      39.178    -420.618
  H     -676.755      35.682    -419.460
  H     -674.503      36.024    -421.109
  H     -677.579      32.764    -424.454
  H     -674.215      38.339    -420.495
  H     -677.093      32.556    -422.807
  H     -674.603      37.482    -417.572
  H     -675.479      39.680    -417.217
  H     -673.901      39.856    -418.043
  P     -671.625      37.855    -420.418
  C     -671.091      35.373    -421.002
  O     -671.584      36.628    -421.459
  O     -670.240      37.712    -419.622
  O     -671.789      39.218    -421.033
  H     -669.528      38.173    -420.106
  H     -671.126      34.663    -421.802
  H     -671.696      35.026    -420.191
  H     -670.080      35.486    -420.670

 6  7  8  9  10  11  12  13  14  15  26  29  33  34 0
 6-311+G(2d,p)
 ****
 36  38  39  40  41 0
 6-311+G(2d,p)
 ****
 1  2  3  4  5  16  17  18  19  20  21  22  23  24  25 0
 3-21G
 ****
 27  28  30  31  32  35  37  42  43  44  45  46  47 0
 3-21G
 ****
 48  49 0
 3-21G
 ****


