%nproc=1
%NoSave
%Mem=1900MB
#P OB98/GEN NMR

erre ene a

0 1
  C     -897.310    1008.952    -896.201
  O     -898.110    1009.669    -897.111
  H     -896.950    1008.041    -896.701
  H     -897.890    1008.656    -895.321
  H     -896.440    1009.542    -895.891
  P     -898.740    1011.045    -896.571
  C     -896.730    1012.212    -897.721
  O     -897.540    1012.136    -896.571
  C     -895.480    1013.073    -897.451
  O     -895.940    1014.452    -897.181
  C     -894.680    1012.607    -896.231
  O     -893.270    1012.799    -896.521
  C     -895.090    1013.592    -895.131
  O     -894.100    1013.681    -894.111
  C     -895.270    1014.855    -895.961
  N     -895.070    1018.764    -892.761
  C     -894.060    1018.013    -893.311
  N     -892.760    1018.348    -893.001
  N     -894.270    1017.018    -894.151
  C     -895.580    1016.815    -894.411
  C     -896.680    1017.454    -893.921
  C     -896.430    1018.554    -892.971
  O     -897.290    1019.266    -892.411
  N     -897.850    1016.961    -894.391
  C     -897.480    1015.957    -895.201
  N     -896.110    1015.844    -895.231
  O     -898.980    1010.763    -895.011
  O     -900.000    1011.496    -897.271
  H     -893.250    1013.930    -894.571
  H     -899.750    1011.277    -894.681
  H     -894.850    1019.493    -892.121
  H     -898.130    1015.289    -895.771
  H     -894.320    1015.357    -896.211
  H     -896.050    1013.249    -894.681
  H     -892.530    1019.105    -892.391
  H     -894.850    1011.564    -895.961
  H     -892.030    1017.795    -893.421
  H     -894.850    1013.122    -898.341
  H     -897.330    1012.664    -898.541
  H     -896.400    1011.206    -898.031
  P     -892.340    1011.493    -896.541
  C     -891.900    1011.559    -899.111
  O     -892.420    1010.841    -897.991
  O     -893.120    1010.472    -895.591
  O     -890.950    1011.750    -896.011
  H     -892.630    1010.363    -894.751
  H     -892.035    1010.979    -900.000
  H     -890.857    1011.746    -898.962
  H     -892.419    1012.490    -899.210

 6  7  8  9  10  11  12  13  14  15  26  29  33  34 0
 6-311+G(2d,p)
 ****
 36  38  39  40  41 0
 6-311+G(2d,p)
 ****
 1  2  3  4  5  16  17  18  19  20  21  22  23  24  25 0
 3-21G
 ****
 27  28  30  31  32  35  37  42  43  44  45  46  47 0
 3-21G
 ****
 48  49 0
 3-21G
 ****


