%nproc=1
%NoSave
%Mem=1900MB
#P OB98/GEN NMR

erre ene a

0 1
  C      116.634     -38.047    -187.123
  O      116.051     -36.936    -187.763
  P      115.701     -37.007    -189.328
  C      117.194     -35.545    -190.823
  O      117.064     -36.790    -190.140
  C      117.930     -34.534    -189.949
  O      119.101     -35.135    -189.354
  C      118.436     -33.310    -190.699
  O      117.374     -32.413    -190.972
  C      119.488     -32.774    -189.732
  O      118.869     -32.002    -188.688
  C      120.068     -34.078    -189.160
  N      125.032     -32.911    -189.479
  C      123.991     -32.262    -188.912
  N      122.683     -32.619    -188.910
  C      122.503     -33.761    -189.581
  C      123.466     -34.513    -190.248
  C      124.790     -34.055    -190.164
  N      125.868     -34.739    -190.682
  N      122.880     -35.609    -190.869
  C      121.596     -35.512    -190.588
  N      121.334     -34.449    -189.768
  O      114.554     -36.159    -189.769
  O      115.380     -38.559    -189.573
  H      119.565     -31.766    -188.052
  H      114.460     -38.655    -189.896
  H      124.232     -31.343    -188.389
  H      120.829     -36.192    -190.938
  H      120.242     -34.005    -188.079
  H      120.224     -32.136    -190.221
  H      118.923     -33.619    -191.636
  H      117.260     -34.236    -189.131
  H      116.190     -35.174    -191.059
  H      126.786     -34.398    -190.430
  H      125.755     -35.725    -190.916
  H      117.740     -35.700    -191.763
  P      117.622     -31.144    -191.923
  C      117.416     -28.940    -190.638
  O      118.275     -29.996    -191.017
  O      116.455     -30.727    -192.758
  O      118.846     -31.612    -192.848
  H      118.762     -31.203    -193.731
  H      117.291     -28.247    -191.485
  H      117.872     -28.398    -189.802
  H      116.440     -29.311    -190.334
  H      116.795     -37.819    -186.090
  H      117.570     -38.276    -187.588
  H      115.980     -38.890    -187.205

 3  4  5  6  7  8  9  10  11  12  22  25  29  30  31  32 0
 6-311+G(2d,p)
 ****
 33  36  37 0
 6-311+G(2d,p)
 ****
 1  2  13  14  15  16  17  18  19  20  21  23  24  26 0
 3-21G
 ****
 27  28  34  35  38  39  40  41  42  43  44  45  46  47  48 0
 3-21G
 ****


