%nproc=1
%NoSave
%Mem=1900MB
#P OB98/GEN NMR

erre ene a

0 1
  C     -461.938    -240.990    -170.222
  O     -460.551    -240.954    -170.578
  P     -459.680    -239.713    -170.091
  C     -458.359    -241.094    -168.354
  O     -459.202    -239.965    -168.574
  C     -457.901    -241.144    -166.887
  O     -459.041    -241.520    -166.052
  C     -456.808    -242.176    -166.580
  O     -455.451    -241.773    -166.707
  C     -457.049    -242.436    -165.090
  O     -456.396    -241.412    -164.301
  C     -458.558    -242.314    -164.945
  N     -462.938    -244.693    -163.750
  C     -462.567    -243.407    -163.679
  N     -461.384    -242.845    -164.008
  C     -460.536    -243.774    -164.482
  C     -460.781    -245.140    -164.624
  C     -462.049    -245.592    -164.227
  N     -462.428    -246.922    -164.298
  N     -459.671    -245.780    -165.135
  C     -458.761    -244.830    -165.283
  N     -459.246    -243.597    -164.925
  O     -460.252    -238.358    -170.362
  O     -458.306    -239.912    -170.910
  H     -456.762    -241.484    -163.405
  H     -457.968    -239.029    -171.176
  H     -463.316    -242.705    -163.278
  H     -457.765    -244.982    -165.660
  H     -458.849    -241.795    -164.026
  H     -456.629    -243.399    -164.767
  H     -456.979    -243.104    -167.150
  H     -457.575    -240.149    -166.568
  H     -457.486    -241.038    -169.002
  H     -463.335    -247.172    -163.949
  H     -461.753    -247.607    -164.606
  H     -458.930    -241.988    -168.646
  P     -454.660    -241.916    -168.106
  C     -455.171    -239.423    -168.713
  O     -455.270    -240.786    -169.062
  O     -454.657    -243.289    -168.681
  O     -453.217    -241.333    -167.736
  H     -453.197    -240.385    -167.556
  H     -455.444    -238.816    -169.584
  H     -454.142    -239.170    -168.417
  H     -455.857    -239.189    -167.890
  H     -462.385    -241.878    -170.618
  H     -462.432    -240.131    -170.626
  H     -462.033    -240.988    -169.156

 3  4  5  6  7  8  9  10  11  12  22  25  29  30  31  32 0
 6-311+G(2d,p)
 ****
 33  36  37 0
 6-311+G(2d,p)
 ****
 1  2  13  14  15  16  17  18  19  20  21  23  24  26 0
 3-21G
 ****
 27  28  34  35  38  39  40  41  42  43  44  45  46  47  48 0
 3-21G
 ****


