%nproc=1
%NoSave
%Mem=1900MB
#P OB98/GEN NMR

erre ene a

0 1
  C      -25.972     110.615      84.139
  O      -26.984     109.633      84.133
  P      -26.847     108.299      83.255
  C      -28.886     108.862      81.782
  O      -27.482     108.628      81.813
  C      -29.352     109.101      80.340
  O      -28.471     110.093      79.722
  C      -29.307     107.824      79.473
  O      -30.528     107.525      78.795
  C      -28.104     108.070      78.575
  O      -28.103     107.296      77.389
  C      -28.146     109.593      78.408
  N      -26.888     110.137      77.900
  C      -26.670     110.050      76.527
  O      -27.460     109.559      75.726
  N      -25.453     110.498      76.085
  C      -24.415     110.904      76.871
  O      -23.317     111.197      76.413
  C      -24.693     110.938      78.316
  C      -25.902     110.583      78.759
  O      -27.379     107.058      83.890
  O      -25.280     108.243      82.923
  H      -28.748     107.692      76.773
  H      -24.937     109.012      82.435
  H      -25.279     110.439      75.093
  H      -23.885     111.247      78.964
  H      -26.135     110.597      79.820
  H      -28.952     109.899      77.736
  H      -27.203     107.791      79.137
  H      -29.122     106.938      80.091
  H      -30.366     109.514      80.380
  H      -29.110     109.746      82.382
  H      -29.415     108.015      82.233
  P      -31.119     106.054      78.568
  C      -30.388     106.188      76.075
  O      -30.422     105.431      77.267
  O      -32.608     105.954      78.598
  O      -30.473     105.206      79.766
  H      -31.074     104.474      80.007
  H      -30.370     105.499      75.223
  H      -29.476     106.791      76.056
  H      -31.262     106.840      75.986
  H      -26.258     111.418      84.785
  H      -25.832     110.988      83.146
  H      -25.058     110.183      84.490

 3  4  5  6  7  8  9  10  11  12  13  23  28  29  30  31  32 0
 6-311+G(2d,p)
 ****
 33  34 0
 6-311+G(2d,p)
 ****
 1  2  14  15  16  17  18  19  20  21  22  24  25  26  27 0
 3-21G
 ****
 35  36  37  38  39  40  41  42  43  44  45 0
 3-21G
 ****


