%nproc=1
%NoSave
%Mem=1900MB
#P OB98/GEN NMR

erre ene a

0 1
  C     1158.007    -175.693    1237.711
  O     1159.228    -175.019    1237.938
  H     1158.196    -176.770    1237.672
  H     1157.581    -175.382    1236.753
  H     1157.301    -175.480    1238.519
  P     1159.191    -173.418    1237.918
  C     1160.394    -173.084    1240.202
  O     1159.192    -172.934    1239.450
  C     1161.159    -171.763    1240.214
  O     1160.331    -170.716    1240.813
  C     1162.430    -171.773    1241.032
  O     1163.516    -172.401    1240.349
  C     1162.668    -170.293    1241.263
  O     1163.351    -169.688    1240.158
  C     1161.231    -169.744    1241.394
  N     1160.888    -169.446    1242.783
  C     1161.345    -168.233    1243.264
  O     1162.006    -167.441    1242.583
  N     1161.068    -167.971    1244.582
  C     1160.424    -168.808    1245.448
  O     1160.266    -168.525    1246.636
  C     1159.968    -170.078    1244.883
  C     1160.226    -170.361    1243.602
  O     1157.707    -173.087    1237.420
  O     1160.226    -172.774    1237.055
  H     1157.732    -172.776    1236.494
  H     1162.838    -169.930    1239.363
  H     1161.392    -167.088    1244.945
  H     1159.472    -170.772    1245.540
  H     1159.903    -171.298    1243.167
  H     1161.111    -168.827    1240.806
  H     1163.266    -170.128    1242.149
  H     1162.254    -172.269    1242.008
  H     1161.374    -171.470    1239.171
  H     1161.036    -173.853    1239.746
  H     1160.143    -173.404    1241.221
  P     1164.297    -173.580    1241.099
  C     1163.080    -175.697    1240.094
  O     1163.256    -174.805    1241.182
  O     1164.375    -173.015    1242.594
  O     1165.618    -173.903    1240.467
  H     1163.638    -172.383    1242.782
  H     1162.348    -176.434    1240.352
  H     1164.010    -176.179    1239.874
  H     1162.749    -175.151    1239.235

 6  7  8  9  10  11  12  13  14  15  16  27  31  32  33  34  35 0
 6-311+G(2d,p)
 ****
 36  37 0
 6-311+G(2d,p)
 ****
 1  2  3  4  5  17  18  19  20  21  22  23  24  25 0
 3-21G
 ****
 26  28  29  30  38  39  40  41  42  43  44  45 0
 3-21G
 ****


