%nproc=1
%NoSave
%Mem=1900MB
#P OB98/GEN NMR

erre ene a

0 1
  C      588.187    -892.310     556.713
  O      588.234    -893.730     556.705
  H      589.133    -891.930     556.331
  H      588.048    -891.950     557.739
  H      587.374    -891.960     556.078
  P      586.902    -894.550     557.074
  C      586.636    -895.350     554.635
  O      586.038    -894.660     555.733
  C      586.008    -896.720     554.479
  O      584.569    -896.620     554.497
  C      586.350    -897.400     553.149
  O      587.663    -897.930     553.182
  C      585.245    -898.450     553.073
  O      585.567    -899.600     553.884
  C      584.032    -897.680     553.643
  N      583.158    -897.150     552.618
  C      582.295    -898.070     552.031
  O      582.258    -899.270     552.301
  N      581.459    -897.550     551.058
  C      581.494    -896.280     550.579
  O      580.786    -895.890     549.644
  C      582.441    -895.360     551.219
  C      583.219    -895.820     552.201
  O      586.160    -894.070     558.280
  O      587.443    -896.050     557.295
  H      586.364    -900.000     553.487
  H      587.460    -896.250     558.247
  H      580.827    -898.210     550.608
  H      582.481    -894.330     550.868
  H      583.939    -895.190     552.691
  H      583.460    -898.330     554.303
  H      585.094    -898.810     552.060
  H      586.233    -896.710     552.325
  H      586.309    -897.350     555.340
  H      587.709    -895.440     554.833
  H      586.496    -894.730     553.724
  P      588.639    -897.710     551.932
  C      590.533    -896.760     553.400
  O      589.657    -896.520     552.295
  O      587.962    -897.560     550.599
  O      589.592    -898.990     551.936
  H      589.486    -899.490     551.101
  H      591.161    -895.907     553.549
  H      591.139    -897.617     553.195
  H      589.954    -896.935     554.283

 6  7  8  9  10  11  12  13  14  15  16  26  31  32  33  34  35 0
 6-311+G(2d,p)
 ****
 36  37 0
 6-311+G(2d,p)
 ****
 1  2  3  4  5  17  18  19  20  21  22  23  24  25 0
 3-21G
 ****
 27  28  29  30  38  39  40  41  42  43  44  45 0
 3-21G
 ****


