%nproc=1
%NoSave
%Mem=1900MB
#P OB98/GEN NMR

erre ene a

0 1
  C     -228.867    -582.839     -26.658
  O     -229.154    -581.918     -25.623
  H     -229.275    -582.449     -27.595
  H     -229.334    -583.805     -26.446
  H     -227.787    -582.959     -26.766
  P     -228.671    -582.322     -24.148
  C     -230.036    -580.316     -23.244
  O     -229.797    -581.717     -23.179
  C     -231.395    -579.979     -22.636
  O     -232.452    -580.478     -23.470
  C     -231.626    -580.568     -21.251
  O     -231.043    -579.745     -20.257
  C     -233.142    -580.537     -21.176
  O     -233.585    -579.211     -20.817
  C     -233.566    -580.853     -22.619
  N     -237.354    -584.154     -23.681
  C     -237.374    -582.854     -23.306
  N     -236.334    -582.056     -22.989
  C     -235.170    -582.723     -23.094
  C     -234.997    -584.045     -23.467
  C     -236.156    -584.774     -23.773
  N     -236.132    -586.100     -24.153
  N     -233.657    -584.387     -23.460
  C     -233.035    -583.265     -23.152
  N     -233.907    -582.240     -22.885
  O     -227.257    -581.979     -23.814
  O     -229.010    -583.888     -24.133
  H     -233.128    -578.591     -21.417
  H     -229.863    -584.056     -24.569
  H     -238.357    -582.397     -23.251
  H     -231.959    -583.140     -23.126
  H     -234.431    -580.258     -22.931
  H     -233.543    -581.217     -20.422
  H     -231.283    -581.606     -21.188
  H     -231.488    -578.882     -22.613
  H     -229.998    -579.976     -24.285
  H     -237.010    -586.590     -24.166
  H     -235.253    -586.592     -24.096
  H     -229.231    -579.817     -22.688
  P     -229.974    -580.335     -19.215
  C     -230.776    -578.593     -17.501
  O     -230.562    -579.973     -17.763
  O     -228.567    -579.912     -19.467
  O     -230.172    -581.915     -19.298
  H     -229.400    -582.371     -18.908
  H     -231.166    -578.474     -16.512
  H     -231.475    -578.200     -18.210
  H     -229.848    -578.066     -17.584

 6  7  8  9  10  11  12  13  14  15  25  28  32  33  34  35 0
 6-311+G(2d,p)
 ****
 36  39  40 0
 6-311+G(2d,p)
 ****
 1  2  3  4  5  16  17  18  19  20  21  22  23  24 0
 3-21G
 ****
 26  27  29  30  31  37  38  41  42  43  44  45  46  47 0
 3-21G
 ****
 48 0
 3-21G
 ****


