%nproc=1
%NoSave
%Mem=1900MB
#P OB98/GEN NMR

erre ene a

0 1
  C      -87.836      78.424    -166.844
  O      -86.698      78.737    -166.065
  H      -88.119      79.305    -167.426
  H      -88.666      78.163    -166.179
  H      -87.632      77.597    -167.527
  P      -85.875      77.510    -165.444
  C      -84.457      75.768    -166.754
  O      -84.721      77.143    -166.504
  C      -83.490      75.620    -167.928
  O      -84.162      76.069    -169.145
  C      -82.192      76.430    -167.783
  O      -81.107      75.679    -168.341
  C      -82.449      77.631    -168.677
  O      -81.239      78.247    -169.122
  C      -83.261      76.987    -169.796
  N      -82.566      80.998    -172.737
  C      -81.659      80.073    -172.246
  N      -80.354      80.280    -172.531
  N      -82.002      79.035    -171.530
  C      -83.341      78.937    -171.337
  C      -84.336      79.781    -171.764
  C      -83.940      80.943    -172.538
  O      -84.690      81.802    -172.985
  N      -85.566      79.368    -171.303
  C      -85.308      78.284    -170.586
  N      -83.972      77.986    -170.577
  O      -86.908      76.291    -165.573
  O      -85.410      77.697    -164.038
  H      -80.717      78.489    -168.335
  H      -87.404      76.189    -164.739
  H      -82.244      81.790    -173.267
  H      -86.041      77.702    -170.046
  H      -82.635      76.418    -170.496
  H      -83.041      78.386    -168.141
  H      -80.015      81.039    -173.101
  H      -81.956      76.715    -166.749
  H      -79.684      79.591    -172.215
  H      -83.266      74.555    -168.060
  H      -85.396      75.259    -166.997
  H      -84.035      75.317    -165.849
  P      -80.095      74.947    -167.335
  C      -80.003      72.700    -166.022
  O      -80.690      73.505    -166.970
  O      -80.285      75.773    -165.975
  O      -78.678      74.960    -167.791
  H      -79.437      75.822    -165.496
  H      -80.527      71.776    -165.892
  H      -79.953      73.216    -165.086
  H      -79.012      72.502    -166.374

 6  7  8  9  10  11  12  13  14  15  26  29  33  34 0
 6-311+G(2d,p)
 ****
 36  38  39  40  41 0
 6-311+G(2d,p)
 ****
 1  2  3  4  5  16  17  18  19  20  21  22  23  24  25 0
 3-21G
 ****
 27  28  30  31  32  35  37  42  43  44  45  46  47 0
 3-21G
 ****
 48  49 0
 3-21G
 ****


