%nproc=1
%NoSave
%Mem=1900MB
#P OB98/GEN NMR

erre ene a

0 1
  C       59.722       0.069    -775.521
  O       60.290       0.565    -774.323
  H       59.887      -1.010    -775.584
  H       58.645       0.258    -775.505
  H       60.152       0.568    -776.393
  P       61.890       0.672    -774.259
  C       63.726       1.740    -775.752
  O       62.342       1.489    -775.569
  C       63.938       2.946    -776.663
  O       63.430       2.619    -777.989
  C       63.225       4.229    -776.194
  O       64.078       5.351    -776.460
  C       62.008       4.306    -777.110
  O       61.522       5.632    -777.267
  C       62.557       3.694    -778.393
  N       58.788       5.202    -781.453
  C       59.864       5.857    -780.962
  N       60.861       5.358    -780.190
  C       60.695       4.037    -779.999
  C       59.655       3.236    -780.436
  C       58.646       3.880    -781.188
  N       57.517       3.242    -781.638
  N       59.817       1.941    -779.981
  C       60.919       1.965    -779.260
  N       61.482       3.210    -779.233
  O       62.347      -0.835    -774.578
  O       62.452       1.165    -772.966
  H       62.072       6.097    -777.926
  H       62.380      -1.346    -773.748
  H       59.933       6.911    -781.212
  H       61.326       1.128    -778.713
  H       63.145       4.410    -778.979
  H       61.202       3.684    -776.694
  H       62.948       4.220    -775.132
  H       65.013       3.127    -776.765
  H       64.193       0.861    -776.211
  H       56.802       3.809    -782.070
  H       57.344       2.289    -781.353
  H       64.194       1.914    -774.773
  P       65.084       5.804    -775.294
  C       67.070       4.599    -774.116
  O       66.374       4.850    -775.335
  O       64.326       5.351    -773.960
  O       65.377       7.273    -775.291
  H       64.524       5.966    -773.231
  H       67.900       3.951    -774.306
  H       66.407       4.134    -773.416
  H       67.425       5.524    -773.711

 6  7  8  9  10  11  12  13  14  15  25  28  32  33  34  35 0
 6-311+G(2d,p)
 ****
 36  39  40 0
 6-311+G(2d,p)
 ****
 1  2  3  4  5  16  17  18  19  20  21  22  23  24 0
 3-21G
 ****
 26  27  29  30  31  37  38  41  42  43  44  45  46  47 0
 3-21G
 ****
 48 0
 3-21G
 ****


