%nproc=1
%NoSave
%Mem=1900MB
#P OB98/GEN NMR

erre ene a

0 1
  C     -803.223    -354.497     322.560
  O     -802.010    -353.779     322.660
  P     -801.213    -353.873     324.044
  C     -798.764    -353.567     323.172
  O     -799.871    -353.003     323.878
  C     -797.943    -352.453     322.518
  O     -798.700    -351.850     321.442
  C     -797.598    -351.318     323.460
  O     -796.505    -351.653     324.307
  C     -797.272    -350.185     322.490
  O     -795.930    -350.282     322.019
  C     -798.285    -350.459     321.344
  N     -799.419    -349.554     321.369
  C     -799.165    -348.243     320.968
  O     -798.040    -347.859     320.634
  N     -800.235    -347.385     320.998
  C     -801.499    -347.681     321.446
  O     -802.399    -346.856     321.508
  C     -801.705    -349.076     321.893
  C     -800.672    -349.929     321.839
  O     -800.683    -355.376     324.102
  O     -802.019    -353.512     325.249
  H     -795.348    -350.037     322.771
  H     -800.701    -355.695     325.025
  H     -800.070    -346.439     320.694
  H     -802.682    -349.350     322.235
  H     -800.795    -350.949     322.167
  H     -797.772    -350.367     320.375
  H     -797.388    -349.199     322.940
  H     -798.473    -351.040     324.058
  H     -797.035    -352.900     322.097
  H     -799.138    -354.256     322.403
  H     -798.151    -354.140     323.882
  P     -796.492    -351.014     325.782
  C     -795.597    -353.301     326.703
  O     -795.444    -351.895     326.604
  O     -797.932    -351.474     326.312
  O     -796.279    -349.525     325.781
  H     -798.212    -352.333     325.954
  H     -796.006    -353.707     325.758
  H     -796.272    -353.543     327.521
  H     -794.629    -353.749     326.891
  H     -803.647    -354.347     321.589
  H     -803.906    -354.148     323.306
  H     -803.034    -355.540     322.709

 3  4  5  6  7  8  9  10  11  12  13  23  28  29  30  31  32 0
 6-311+G(2d,p)
 ****
 33  34 0
 6-311+G(2d,p)
 ****
 1  2  14  15  16  17  18  19  20  21  22  24  25  26 0
 3-21G
 ****
 27  35  36  37  38  39  40  41  42  43  44  45 0
 3-21G
 ****


