%nproc=1
%NoSave
%Mem=1900MB
#P OB98/GEN NMR

erre ene a

0 1
  C      239.419     189.628     352.956
  O      238.926     188.306     352.975
  H      239.041     190.155     353.835
  H      239.063     190.142     352.057
  H      240.510     189.644     352.980
  P      239.600     187.219     352.013
  C      239.184     186.308     349.634
  O      238.759     187.208     350.647
  C      238.105     186.137     348.559
  O      236.843     185.797     349.187
  C      237.886     187.454     347.807
  O      237.442     187.240     346.471
  C      236.772     188.114     348.603
  O      236.058     189.095     347.855
  C      235.936     186.898     349.002
  N      232.093     189.388     351.239
  C      232.652     189.582     349.990
  N      232.131     190.587     349.249
  N      233.639     188.867     349.518
  C      234.107     187.949     350.397
  C      233.657     187.681     351.670
  C      232.537     188.453     352.162
  O      232.013     188.336     353.269
  N      234.396     186.690     352.266
  C      235.299     186.364     351.362
  N      235.155     187.092     350.204
  O      239.196     185.819     352.680
  O      241.086     187.335     351.842
  H      235.405     189.503     348.454
  H      239.838     185.129     352.437
  H      231.324     189.956     351.545
  H      236.066     185.612     351.492
  H      235.238     186.629     348.196
  H      237.218     188.625     349.462
  H      231.498     191.267     349.636
  H      238.784     188.071     347.789
  H      232.707     190.928     348.474
  H      238.362     185.307     347.893
  H      239.383     185.348     350.120
  H      240.120     186.656     349.189
  P      238.207     188.027     345.300
  C      237.818     190.268     343.994
  O      237.332     189.314     344.921
  O      238.059     187.058     344.037
  O      239.635     188.323     345.615
  H      238.902     186.610     343.856
  H      237.096     191.048     343.873
  H      237.991     189.793     343.051
  H      238.735     190.684     344.357

 6  7  8  9  10  11  12  13  14  15  26  29  33  34 0
 6-311+G(2d,p)
 ****
 36  38  39  40  41 0
 6-311+G(2d,p)
 ****
 1  2  3  4  5  16  17  18  19  20  21  22  23  24  25 0
 3-21G
 ****
 27  28  30  31  32  35  37  42  43  44  45  46  47 0
 3-21G
 ****
 48  49 0
 3-21G
 ****


