%nproc=1
%NoSave
%Mem=1900MB
#P OB98/GEN NMR

erre ene a

0 1
  C      452.550    -651.349     385.461
  O      451.585    -650.374     385.118
  H      453.310    -650.904     386.111
  H      452.054    -652.157     386.004
  H      453.016    -651.765     384.564
  P      452.072    -649.181     384.163
  C      452.930    -647.468     385.928
  O      453.268    -648.453     384.949
  C      454.158    -647.123     386.778
  O      455.224    -646.669     385.901
  C      453.887    -646.012     387.802
  O      454.591    -646.313     389.010
  C      454.499    -644.777     387.152
  O      454.873    -643.791     388.100
  C      455.668    -645.386     386.381
  N      457.497    -640.783     385.117
  C      457.278    -641.375     386.315
  N      456.791    -642.607     386.566
  C      456.575    -643.271     385.419
  C      456.749    -642.803     384.123
  C      457.221    -641.488     383.991
  N      457.417    -640.872     382.778
  N      456.379    -643.771     383.206
  C      455.984    -644.801     383.934
  N      456.082    -644.548     385.275
  O      450.860    -648.136     384.274
  O      452.361    -649.554     382.751
  H      455.320    -643.063     387.630
  H      450.130    -648.427     383.694
  H      457.519    -640.769     387.189
  H      455.618    -645.740     383.545
  H      456.554    -645.541     387.016
  H      453.774    -644.333     386.455
  H      452.833    -645.878     388.017
  H      454.511    -648.032     387.270
  H      452.135    -647.867     386.571
  H      457.703    -639.906     382.778
  H      457.161    -641.357     381.932
  H      452.567    -646.567     385.419
  P      453.699    -646.770     390.270
  C      452.639    -644.447     390.747
  O      452.424    -645.797     390.369
  O      454.600    -646.348     391.529
  O      453.390    -648.228     390.283
  H      454.670    -647.098     392.145
  H      451.703    -643.929     390.768
  H      453.290    -643.978     390.039
  H      453.086    -644.416     391.718

 6  7  8  9  10  11  12  13  14  15  25  28  32  33  34  35 0
 6-311+G(2d,p)
 ****
 36  39  40 0
 6-311+G(2d,p)
 ****
 1  2  3  4  5  16  17  18  19  20  21  22  23  24 0
 3-21G
 ****
 26  27  29  30  31  37  38  41  42  43  44  45  46  47 0
 3-21G
 ****
 48 0
 3-21G
 ****


