%nproc=1
%NoSave
%Mem=1900MB
#P OB98/GEN NMR

erre ene a

0 1
  C      -56.097    -225.772       5.517
  O      -55.983    -226.476       4.299
  H      -56.320    -226.488       6.315
  H      -56.914    -225.049       5.460
  H      -55.164    -225.259       5.760
  P      -55.494    -225.685       2.994
  C      -53.045    -226.440       3.263
  O      -53.945    -225.339       3.211
  C      -51.823    -226.153       2.391
  O      -52.163    -226.323       0.996
  C      -51.302    -224.726       2.510
  O      -50.591    -224.532       3.716
  C      -50.469    -224.621       1.245
  O      -49.174    -225.205       1.427
  C      -51.302    -225.445       0.238
  N      -52.080    -224.591      -0.660
  C      -51.357    -223.671      -1.413
  O      -50.132    -223.563      -1.361
  N      -52.100    -222.824      -2.194
  C      -53.459    -222.723      -2.182
  O      -54.070    -221.796      -2.704
  C      -54.171    -223.759      -1.417
  C      -53.459    -224.624      -0.691
  O      -56.351    -224.537       2.576
  O      -55.448    -226.821       1.863
  H      -56.238    -226.739       1.295
  H      -48.728    -225.141       0.558
  H      -51.583    -222.127      -2.710
  H      -55.255    -223.755      -1.441
  H      -53.964    -225.377      -0.091
  H      -50.649    -226.084      -0.368
  H      -50.326    -223.581       0.946
  H      -52.140    -224.020       2.444
  H      -51.041    -226.879       2.644
  H      -53.559    -227.331       2.889
  H      -52.748    -226.607       4.303
  P      -50.434    -223.061       4.332
  C      -52.215    -223.004       6.186
  O      -51.867    -222.582       4.870
  O      -49.733    -222.074       3.456
  O      -49.610    -223.296       5.689
  H      -48.854    -222.675       5.709
  H      -53.185    -222.628       6.436
  H      -51.496    -222.628       6.883
  H      -52.225    -224.073       6.227

 6  7  8  9  10  11  12  13  14  15  16  27  31  32  33  34  35 0
 6-311+G(2d,p)
 ****
 36  37 0
 6-311+G(2d,p)
 ****
 1  2  3  4  5  17  18  19  20  21  22  23  24  25 0
 3-21G
 ****
 26  28  29  30  38  39  40  41  42  43  44  45 0
 3-21G
 ****


