%nproc=1
%NoSave
%Mem=1900MB
#P OB98/GEN NMR

erre ene a

0 1
  C       35.935    -315.446    -134.445
  O       35.786    -314.419    -133.486
  H       36.975    -315.791    -134.425
  H       35.712    -315.067    -135.443
  H       35.285    -316.297    -134.210
  P       34.319    -313.831    -133.203
  C       35.041    -311.542    -132.254
  O       34.445    -312.801    -131.977
  C       35.134    -310.694    -130.981
  O       33.811    -310.188    -130.661
  C       35.645    -311.466    -129.757
  O       36.472    -310.609    -128.969
  C       34.379    -311.803    -128.997
  O       34.614    -311.981    -127.601
  C       33.496    -310.599    -129.309
  N       29.726    -311.421    -126.044
  C       31.021    -311.025    -125.821
  N       31.388    -310.833    -124.534
  N       31.904    -310.830    -126.769
  C       31.397    -311.032    -128.019
  C       30.122    -311.431    -128.370
  C       29.170    -311.660    -127.301
  O       28.012    -312.031    -127.440
  N       30.004    -311.550    -129.733
  C       31.196    -311.227    -130.203
  N       32.081    -310.926    -129.198
  O       33.246    -314.867    -133.042
  O       34.029    -312.873    -134.451
  H       35.220    -311.261    -127.322
  H       33.395    -313.287    -135.072
  H       29.092    -311.566    -125.277
  H       31.470    -311.204    -131.244
  H       33.683    -309.752    -128.637
  H       33.942    -312.729    -129.391
  H       30.755    -310.942    -123.749
  H       36.203    -312.360    -130.042
  H       32.329    -310.509    -124.338
  H       35.769    -309.824    -131.189
  H       34.425    -311.022    -132.999
  H       36.044    -311.703    -132.675
  P       38.056    -310.882    -128.915
  C       38.135    -310.144    -126.458
  O       38.701    -309.989    -127.751
  O       38.765    -310.820    -130.236
  O       38.138    -312.368    -128.297
  H       38.900    -312.837    -128.704
  H       38.642    -309.503    -125.767
  H       38.239    -311.161    -126.143
  H       37.097    -309.885    -126.489

 6  7  8  9  10  11  12  13  14  15  26  29  33  34 0
 6-311+G(2d,p)
 ****
 36  38  39  40  41 0
 6-311+G(2d,p)
 ****
 1  2  3  4  5  16  17  18  19  20  21  22  23  24  25 0
 3-21G
 ****
 27  28  30  31  32  35  37  42  43  44  45  46  47 0
 3-21G
 ****
 48  49 0
 3-21G
 ****


