%nproc=1
%NoSave
%Mem=1900MB
#P OB98/GEN NMR

erre ene a

0 1
  C      483.568      27.517     161.175
  O      483.106      27.539     159.840
  H      483.557      28.538     161.566
  H      484.596      27.143     161.210
  H      482.924      26.895     161.801
  P      482.850      26.145     159.088
  C      484.012      26.462     156.802
  O      484.098      25.911     158.110
  C      485.251      26.097     155.978
  O      486.429      26.668     156.631
  C      485.504      24.579     155.845
  O      486.160      24.372     154.582
  C      486.450      24.343     157.008
  O      487.057      23.078     156.964
  C      487.351      25.579     156.855
  N      488.218      25.864     157.990
  C      489.526      26.260     157.721
  O      490.000      26.387     156.592
  N      490.308      26.510     158.817
  C      489.916      26.419     160.124
  O      490.659      26.685     161.064
  C      488.527      25.989     160.344
  C      487.754      25.740     159.286
  O      481.509      25.989     158.453
  O      483.091      25.049     160.233
  H      482.231      24.730     160.565
  H      487.721      23.068     156.239
  H      491.256      26.802     158.641
  H      488.189      25.896     161.368
  H      486.718      25.431     159.414
  H      487.958      25.485     155.951
  H      485.897      24.376     157.948
  H      484.585      23.990     155.877
  H      485.174      26.572     154.993
  H      483.933      27.550     156.892
  H      483.110      26.080     156.311
  P      485.468      23.640     153.334
  C      487.694      22.418     152.812
  O      486.291      22.295     153.026
  O      485.290      24.519     152.141
  O      484.058      23.112     153.883
  H      483.425      23.043     153.141
  H      488.111      21.452     152.619
  H      488.152      22.837     153.683
  H      487.872      23.057     151.973

 6  7  8  9  10  11  12  13  14  15  16  27  31  32  33  34  35 0
 6-311+G(2d,p)
 ****
 36  37 0
 6-311+G(2d,p)
 ****
 1  2  3  4  5  17  18  19  20  21  22  23  24  25 0
 3-21G
 ****
 26  28  29  30  38  39  40  41  42  43  44  45 0
 3-21G
 ****


