%nproc=1
%NoSave
%Mem=1900MB
#P OB98/GEN NMR

erre ene a

0 1
  C      -53.689      57.249    -100.831
  O      -53.573      56.450     -99.666
  P      -52.603      55.172     -99.731
  C      -53.268      54.618     -97.278
  O      -53.127      54.149     -98.612
  C      -53.931      53.552     -96.412
  O      -55.320      53.398     -96.765
  C      -53.324      52.163     -96.558
  O      -52.145      52.004     -95.788
  C      -54.442      51.296     -96.002
  O      -54.405      51.308     -94.563
  C      -55.694      52.021     -96.510
  N      -59.840      50.128     -98.705
  C      -59.707      50.820     -97.518
  N      -60.831      50.978     -96.786
  N      -58.578      51.317     -97.089
  C      -57.536      51.075     -97.923
  C      -57.544      50.404     -99.124
  C      -58.799      49.850     -99.581
  O      -58.971      49.183    -100.595
  N      -56.295      50.369     -99.685
  C      -55.531      51.018     -98.830
  N      -56.228      51.427     -97.723
  O      -51.231      55.717     -99.115
  O      -52.419      54.599    -101.095
  H      -54.487      52.243     -94.289
  H      -50.497      55.119     -99.352
  H      -60.733      49.760     -98.990
  H      -54.472      51.199     -98.960
  H      -56.492      52.033     -95.761
  H      -54.364      50.250     -96.313
  H      -61.719      50.565     -97.031
  H      -53.158      51.910     -97.613
  H      -60.751      51.425     -95.881
  H      -53.882      53.885     -95.367
  H      -53.878      55.523     -97.277
  H      -52.280      54.869     -96.879
  P      -51.050      50.971     -96.347
  C      -49.702      51.223     -94.140
  O      -50.347      50.352     -95.048
  O      -49.932      51.933     -96.968
  O      -51.575      49.994     -97.344
  H      -49.443      51.473     -97.676
  H      -49.520      50.685     -93.206
  H      -50.323      52.097     -93.925
  H      -48.742      51.545     -94.554
  H      -54.363      58.058    -100.643
  H      -54.064      56.653    -101.637
  H      -52.728      57.639    -101.093

 3  4  5  6  7  8  9  10  11  12  23  26  30  31 0
 6-311+G(2d,p)
 ****
 33  35  36  37  38 0
 6-311+G(2d,p)
 ****
 1  2  13  14  15  16  17  18  19  20  21  22  24  25 0
 3-21G
 ****
 27  28  29  32  34  39  40  41  42  43  44  45  46  47  48  49 0
 3-21G
 ****


