%nproc=1
%NoSave
%Mem=1900MB
#P OB98/GEN NMR

erre ene a

0 1
  C      -31.864    -101.738      -7.235
  O      -31.403    -101.277      -5.979
  P      -30.149    -100.286      -5.900
  C      -31.532     -98.265      -5.018
  O      -30.721     -98.796      -6.043
  C      -31.220     -96.783      -4.775
  O      -32.259     -96.243      -3.923
  C      -29.905     -96.515      -4.050
  O      -29.541     -95.149      -4.259
  C      -30.301     -96.720      -2.605
  O      -29.390     -96.099      -1.702
  C      -31.749     -96.166      -2.572
  N      -32.604     -96.941      -1.656
  C      -32.564     -96.590      -0.310
  O      -31.917     -95.634       0.114
  N      -33.225     -97.428       0.546
  C      -33.863     -98.578       0.188
  O      -34.175     -99.461       0.977
  C      -34.073     -98.763      -1.257
  C      -33.421     -97.962      -2.103
  O      -29.405    -100.545      -7.292
  O      -29.245    -100.507      -4.737
  H      -28.545     -96.603      -1.760
  H      -28.678    -101.184      -7.171
  H      -33.076     -97.255       1.533
  H      -34.701     -99.582      -1.580
  H      -33.516     -98.107      -3.175
  H      -31.769     -95.118      -2.248
  H      -30.306     -97.794      -2.383
  H      -29.086     -97.176      -4.346
  H      -31.251     -96.244      -5.730
  H      -31.382     -98.845      -4.103
  H      -32.591     -98.367      -5.280
  P      -28.226     -94.603      -3.522
  C      -26.733     -95.470      -5.421
  O      -27.010     -95.512      -4.036
  O      -28.326     -94.440      -2.042
  O      -27.955     -93.203      -4.257
  H      -27.373     -92.650      -3.706
  H      -25.668     -95.663      -5.573
  H      -26.982     -94.496      -5.851
  H      -27.311     -96.247      -5.928
  H      -32.703    -102.386      -7.091
  H      -31.080    -102.274      -7.728
  H      -32.157    -100.903      -7.836

 3  4  5  6  7  8  9  10  11  12  13  23  28  29  30  31  32 0
 6-311+G(2d,p)
 ****
 33  34 0
 6-311+G(2d,p)
 ****
 1  2  14  15  16  17  18  19  20  21  22  24  25  26  27 0
 3-21G
 ****
 35  36  37  38  39  40  41  42  43  44  45 0
 3-21G
 ****


