%nproc=1
%NoSave
%Mem=1900MB
#P OB98/GEN NMR

erre ene a

0 1
  C      201.194    -296.609     -13.098
  O      202.153    -296.978     -12.113
  P      203.708    -297.206     -12.383
  C      203.628    -299.830     -12.219
  O      203.909    -298.672     -12.994
  C      203.240    -301.013     -13.120
  O      204.406    -301.395     -13.915
  C      202.820    -302.250     -12.312
  O      201.692    -302.923     -12.856
  C      204.114    -303.041     -12.208
  O      203.912    -304.414     -11.902
  C      204.781    -302.743     -13.551
  N      208.867    -305.370     -15.123
  C      207.524    -305.661     -15.278
  N      207.226    -306.808     -15.921
  N      206.560    -304.903     -14.827
  C      206.998    -303.828     -14.134
  C      208.297    -303.440     -13.899
  C      209.356    -304.261     -14.446
  O      210.560    -304.037     -14.353
  N      208.347    -302.284     -13.162
  C      207.084    -301.983     -12.937
  N      206.224    -302.889     -13.516
  O      204.629    -296.804     -11.282
  O      204.016    -296.250     -13.645
  H      203.320    -304.787     -12.581
  H      204.944    -295.949     -13.540
  H      209.567    -305.977     -15.509
  H      206.737    -301.120     -12.379
  H      204.430    -303.411     -14.342
  H      204.699    -302.613     -11.388
  H      207.914    -307.496     -16.186
  H      202.490    -301.964     -11.309
  H      206.258    -307.124     -15.837
  H      202.454    -300.692     -13.807
  H      202.785    -299.563     -11.574
  H      204.469    -300.080     -11.574
  P      200.152    -302.760     -12.465
  C      199.934    -304.954     -11.154
  O      199.891    -303.541     -11.092
  O      199.354    -303.647     -13.535
  O      199.647    -301.354     -12.482
  H      198.756    -303.075     -14.056
  H      199.487    -305.359     -10.244
  H      200.973    -305.288     -11.214
  H      199.379    -305.323     -12.019
  H      200.229    -296.525     -12.643
  H      201.163    -297.356     -13.863
  H      201.469    -295.669     -13.529

 3  4  5  6  7  8  9  10  11  12  23  26  30  31 0
 6-311+G(2d,p)
 ****
 33  35  36  37  38 0
 6-311+G(2d,p)
 ****
 1  2  13  14  15  16  17  18  19  20  21  22  24  25 0
 3-21G
 ****
 27  28  29  32  34  39  40  41  42  43  44  45  46  47  48  49 0
 3-21G
 ****


