%nproc=1
%NoSave
%Mem=1900MB
#P OB98/GEN NMR

erre ene a

0 1
  C     -281.229    -116.805      76.861
  O     -280.524    -117.969      77.301
  P     -278.988    -117.782      77.736
  C     -278.817    -117.279      80.297
  O     -278.907    -118.253      79.271
  C     -278.715    -117.945      81.676
  O     -279.967    -118.630      81.986
  C     -277.579    -118.969      81.799
  O     -277.052    -118.845      83.131
  C     -278.295    -120.299      81.639
  O     -277.558    -121.373      82.199
  C     -279.624    -119.987      82.339
  N     -280.686    -120.921      81.974
  C     -280.826    -122.058      82.763
  O     -280.055    -122.333      83.681
  N     -281.855    -122.895      82.431
  C     -282.691    -122.751      81.359
  O     -283.600    -123.531      81.108
  C     -282.425    -121.591      80.492
  C     -281.447    -120.747      80.836
  O     -278.870    -116.191      77.800
  O     -278.033    -118.456      76.807
  H     -279.672    -115.754      78.137
  H     -278.105    -122.187      82.170
  H     -281.994    -123.709      83.010
  H     -283.027    -121.474      79.602
  H     -281.211    -119.894      80.210
  H     -279.497    -120.017      83.429
  H     -278.460    -120.507      80.575
  H     -276.781    -118.809      81.069
  H     -278.586    -117.154      82.425
  H     -279.708    -116.639      80.283
  H     -277.953    -116.628      80.107
  P     -275.469    -118.598      83.301
  C     -275.269    -116.103      84.081
  O     -275.288    -117.472      84.426
  O     -275.164    -117.800      81.941
  O     -274.646    -119.837      83.441
  H     -275.801    -117.087      81.767
  H     -275.377    -115.509      84.990
  H     -276.093    -115.858      83.404
  H     -274.317    -115.854      83.603
  H     -282.233    -117.072      76.604
  H     -280.739    -116.394      76.003
  H     -281.243    -116.078      77.646

 3  4  5  6  7  8  9  10  11  12  13  24  28  29  30  31  32 0
 6-311+G(2d,p)
 ****
 33  34 0
 6-311+G(2d,p)
 ****
 1  2  14  15  16  17  18  19  20  21  22  23  25  26  27 0
 3-21G
 ****
 35  36  37  38  39  40  41  42  43  44  45 0
 3-21G
 ****


