%nproc=1
%NoSave
%Mem=1900MB
#P OB98/GEN NMR

erre ene a

0 1
  C     -769.582     174.221     -94.600
  O     -770.206     175.037     -93.620
  H     -768.504     174.205     -94.406
  H     -769.756     174.629     -95.599
  H     -769.970     173.198     -94.543
  P     -771.789     175.279     -93.798
  C     -771.295     177.844     -93.836
  O     -771.872     176.725     -94.500
  C     -771.777     179.137     -94.485
  O     -771.280     179.241     -95.839
  C     -773.288     179.268     -94.597
  O     -773.920     179.633     -93.379
  C     -773.386     180.385     -95.627
  O     -773.062     181.640     -95.009
  C     -772.289     179.936     -96.626
  N     -772.793     179.080     -97.706
  C     -773.062     179.699     -98.927
  O     -772.879     180.918     -99.080
  N     -773.570     178.949     -99.962
  C     -773.764     177.680     -99.790
  N     -774.287     176.978    -100.856
  C     -773.487     176.977     -98.517
  C     -773.011     177.732     -97.539
  O     -772.281     175.589     -92.308
  O     -772.545     174.199     -94.495
  H     -772.162     181.541     -94.648
  H     -773.224     175.898     -92.317
  H     -773.684     175.917     -98.423
  H     -772.777     177.283     -96.565
  H     -771.794     180.814     -97.075
  H     -774.378     180.479     -96.060
  H     -773.740     178.358     -95.018
  H     -771.346     179.976     -93.923
  H     -774.513     177.492    -101.680
  H     -770.202     177.771     -93.905
  H     -774.604     176.025    -100.771
  H     -771.589     177.840     -92.775
  P     -775.506     179.878     -93.411
  C     -775.176     182.365     -92.708
  O     -775.730     181.447     -93.638
  O     -775.944     179.656     -91.887
  O     -776.263     178.977     -94.350
  H     -776.839     179.256     -91.832
  H     -775.417     183.364     -93.006
  H     -774.113     182.248     -92.681
  H     -775.580     182.175     -91.736

 6  7  8  9  10  11  12  13  14  15  16  26  30  31  32  33  35 0
 6-311+G(2d,p)
 ****
 37  38 0
 6-311+G(2d,p)
 ****
 1  2  3  4  5  17  18  19  20  21  22  23  24  25 0
 3-21G
 ****
 27  28  29  34  36  39  40  41  42  43  44  45  46 0
 3-21G
 ****


