%nproc=1
%NoSave
%Mem=1900MB
#P OB98/GEN NMR

erre ene a

0 1
  C      223.235    -248.815      78.960
  O      222.440    -249.757      78.266
  H      224.075    -248.527      78.323
  H      223.625    -249.267      79.876
  H      222.656    -247.920      79.204
  P      220.986    -250.063      78.875
  C      220.287    -247.665      78.176
  O      220.323    -248.639      79.206
  C      219.070    -246.761      78.344
  O      219.166    -245.616      77.469
  C      217.738    -247.434      78.023
  O      217.248    -248.178      79.132
  C      216.865    -246.220      77.754
  O      216.487    -245.606      79.007
  C      217.829    -245.299      76.991
  N      214.993    -244.850      72.809
  C      214.652    -244.657      74.136
  N      213.374    -244.303      74.383
  N      215.489    -244.803      75.131
  C      216.728    -245.183      74.736
  C      217.183    -245.410      73.456
  C      216.252    -245.228      72.366
  O      216.508    -245.375      71.172
  N      218.501    -245.783      73.449
  C      218.835    -245.804      74.724
  N      217.796    -245.451      75.546
  O      221.328    -250.670      80.319
  O      220.148    -251.003      78.076
  H      217.287    -245.578      79.565
  H      221.228    -251.641      80.283
  H      214.308    -244.732      72.083
  H      219.817    -246.058      75.101
  H      217.647    -244.240      77.203
  H      215.941    -246.472      77.235
  H      212.673    -244.194      73.666
  H      217.802    -248.049      77.118
  H      213.103    -244.153      75.347
  H      219.072    -246.383      79.375
  H      220.234    -248.171      77.206
  H      221.204    -247.066      78.220
  P      216.204    -249.362      78.849
  C      217.633    -251.512      79.089
  O      217.034    -250.575      78.204
  O      215.355    -248.791      77.616
  O      215.322    -249.722      79.995
  H      214.441    -248.596      77.902
  H      218.149    -252.259      78.522
  H      216.874    -251.977      79.683
  H      218.327    -251.006      79.728

 6  7  8  9  10  11  12  13  14  15  26  29  33  34 0
 6-311+G(2d,p)
 ****
 36  38  39  40  41 0
 6-311+G(2d,p)
 ****
 1  2  3  4  5  16  17  18  19  20  21  22  23  24  25 0
 3-21G
 ****
 27  28  30  31  32  35  37  42  43  44  45  46  47 0
 3-21G
 ****
 48  49 0
 3-21G
 ****


