%nproc=1
%NoSave
%Mem=1900MB
#P OB98/GEN NMR

erre ene a

0 1
  C     -224.963    -619.976    -367.465
  O     -223.957    -619.033    -367.162
  H     -225.921    -619.453    -367.551
  H     -225.042    -620.717    -366.658
  H     -224.743    -620.479    -368.413
  P     -222.442    -619.563    -367.158
  C     -221.478    -617.516    -368.492
  O     -221.488    -618.279    -367.291
  C     -221.196    -616.050    -368.176
  O     -222.398    -615.371    -367.720
  C     -220.211    -615.841    -367.039
  O     -218.885    -616.174    -367.401
  C     -220.421    -614.348    -366.764
  O     -219.730    -613.541    -367.721
  C     -221.953    -614.224    -366.939
  N     -222.653    -614.142    -365.663
  C     -222.567    -612.910    -364.999
  O     -221.941    -611.984    -365.493
  N     -223.171    -612.787    -363.769
  C     -223.826    -613.774    -363.267
  N     -224.396    -613.591    -362.046
  C     -223.972    -615.084    -363.946
  C     -223.358    -615.195    -365.123
  O     -222.308    -620.256    -368.594
  O     -222.083    -620.450    -366.006
  H     -218.779    -613.630    -367.522
  H     -222.564    -619.668    -369.333
  H     -224.537    -615.887    -363.484
  H     -223.409    -616.118    -365.689
  H     -222.200    -613.334    -367.526
  H     -220.049    -614.067    -365.774
  H     -220.527    -616.400    -366.150
  H     -220.861    -615.558    -369.097
  H     -224.267    -612.682    -361.597
  H     -222.429    -617.619    -369.028
  H     -224.907    -614.304    -361.540
  H     -220.686    -617.922    -369.133
  P     -217.709    -616.137    -366.309
  C     -216.578    -618.390    -366.829
  O     -216.494    -616.979    -366.935
  O     -218.106    -616.567    -364.940
  O     -217.167    -614.630    -366.393
  H     -216.828    -614.373    -367.272
  H     -215.715    -618.834    -367.280
  H     -217.459    -618.734    -367.330
  H     -216.623    -618.668    -365.797

 6  7  8  9  10  11  12  13  14  15  16  26  30  31  32  33  35 0
 6-311+G(2d,p)
 ****
 37  38 0
 6-311+G(2d,p)
 ****
 1  2  3  4  5  17  18  19  20  21  22  23  24  25 0
 3-21G
 ****
 27  28  29  34  36  39  40  41  42  43  44  45  46 0
 3-21G
 ****


