%nproc=1
%NoSave
%Mem=1900MB
#P OB98/GEN NMR

erre ene a

0 1
  C      -46.612    -229.819     306.587
  O      -46.803    -228.905     307.666
  P      -45.514    -228.277     308.384
  C      -45.842    -229.906     310.352
  O      -45.632    -228.554     309.959
  C      -46.027    -230.008     311.867
  O      -44.823    -229.655     312.577
  C      -47.099    -229.075     312.406
  O      -48.395    -229.560     312.094
  C      -46.755    -229.049     313.889
  O      -47.300    -230.196     314.564
  C      -45.213    -229.131     313.865
  N      -44.566    -227.860     314.144
  C      -44.051    -227.704     315.434
  O      -44.190    -228.596     316.271
  N      -43.404    -226.535     315.746
  C      -43.288    -225.602     314.852
  N      -42.635    -224.465     315.218
  C      -43.828    -225.721     313.484
  C      -44.455    -226.861     313.203
  O      -45.185    -226.869     308.006
  O      -44.341    -229.282     307.943
  H      -47.024    -230.114     315.498
  H      -43.502    -228.786     307.902
  H      -43.700    -224.918     312.772
  H      -44.884    -227.033     312.222
  H      -44.861    -229.858     314.610
  H      -47.160    -228.161     314.383
  H      -46.965    -228.075     311.980
  H      -46.281    -231.050     312.112
  H      -42.285    -224.404     316.163
  H      -44.988    -230.512     310.040
  H      -42.451    -223.705     314.578
  H      -46.716    -230.298     309.821
  P      -49.051    -229.086     310.711
  C      -49.937    -226.848     311.675
  O      -50.250    -228.081     311.056
  O      -49.810    -230.406     310.205
  O      -48.077    -228.601     309.689
  H      -49.785    -230.442     309.233
  H      -50.788    -226.172     311.553
  H      -49.053    -226.387     311.224
  H      -49.764    -227.007     312.743
  H      -47.564    -230.143     306.221
  H      -46.055    -230.665     306.931
  H      -46.074    -229.334     305.800

 3  4  5  6  7  8  9  10  11  12  13  23  27  28  29  30  32 0
 6-311+G(2d,p)
 ****
 34  35 0
 6-311+G(2d,p)
 ****
 1  2  14  15  16  17  18  19  20  21  22  24  25  26 0
 3-21G
 ****
 31  33  36  37  38  39  40  41  42  43  44  45  46 0
 3-21G
 ****


