%nproc=1
%NoSave
%Mem=1900MB
#P OB98/GEN NMR

erre ene a

0 1
  C      314.132     545.740     -92.790
  O      314.589     547.036     -93.136
  H      314.246     545.085     -93.655
  H      313.073     545.777     -92.512
  H      314.721     545.338     -91.962
  P      314.527     548.150     -91.985
  C      312.951     549.595     -93.473
  O      313.162     548.963     -92.215
  C      311.521     550.117     -93.555
  O      310.591     549.021     -93.374
  C      311.170     551.130     -92.472
  O      311.671     552.425     -92.758
  C      309.649     551.050     -92.480
  O      309.088     551.872     -93.514
  C      309.392     549.571     -92.775
  N      305.628     547.075     -90.396
  C      305.703     547.641     -91.620
  N      306.752     548.279     -92.185
  C      307.810     548.268     -91.360
  C      307.884     547.730     -90.086
  C      306.728     547.105     -89.602
  N      306.639     546.549     -88.346
  N      309.130     547.958     -89.533
  C      309.803     548.619     -90.459
  N      309.043     548.826     -91.582
  O      315.664     549.189     -92.427
  O      314.743     547.643     -90.600
  H      309.321     551.445     -94.358
  H      316.473     549.025     -91.904
  H      304.802     547.584     -92.224
  H      310.819     548.969     -90.366
  H      308.577     549.432     -93.497
  H      309.238     551.387     -91.527
  H      311.535     550.781     -91.498
  H      311.359     550.543     -94.554
  H      313.121     548.871     -94.276
  H      313.667     550.416     -93.577
  H      305.763     546.177     -88.037
  H      307.418     546.670     -87.706
  P      311.816     553.453     -91.538
  C      309.876     554.888     -92.543
  O      310.416     554.230     -91.400
  O      312.809     554.572     -92.101
  O      312.310     552.847     -90.273
  H      313.388     554.895     -91.375
  H      308.948     555.352     -92.282
  H      309.710     554.173     -93.321
  H      310.564     555.633     -92.884

 6  7  8  9  10  11  12  13  14  15  25  28  32  33  34  35 0
 6-311+G(2d,p)
 ****
 36  37  40 0
 6-311+G(2d,p)
 ****
 1  2  3  4  5  16  17  18  19  20  21  22  23  24 0
 3-21G
 ****
 26  27  29  30  31  38  39 41  42  43  44  45  46  47  48 0
 3-21G
 ****


