%nproc=1
%NoSave
%Mem=1900MB
#P OB98/GEN NMR

erre ene a

0 1
  C      367.624     422.158    -765.350
  O      366.241     422.196    -765.069
  H      367.947     421.117    -765.405
  H      368.181     422.653    -764.546
  H      367.835     422.645    -766.306
  P      365.530     423.638    -765.120
  C      363.022     424.152    -765.710
  O      363.953     423.344    -765.009
  C      361.589     423.791    -765.300
  O      361.339     422.402    -765.656
  C      361.318     423.944    -763.803
  O      359.965     424.390    -763.629
  C      361.439     422.522    -763.273
  O      360.738     422.336    -762.050
  C      360.902     421.715    -764.470
  N      361.364     420.321    -764.459
  C      360.468     419.372    -763.955
  O      359.359     419.717    -763.548
  N      360.864     418.055    -763.889
  C      362.074     417.736    -764.230
  N      362.415     416.418    -764.119
  C      363.061     418.714    -764.720
  C      362.646     419.974    -764.813
  O      365.731     424.051    -766.652
  O      366.067     424.628    -764.136
  H      359.783     422.511    -762.204
  H      365.543     423.325    -767.275
  H      364.071     418.394    -764.984
  H      363.308     420.755    -765.169
  H      359.806     421.709    -764.472
  H      362.503     422.278    -763.099
  H      362.001     424.639    -763.316
  H      360.891     424.399    -765.893
  H      361.709     415.786    -763.762
  H      363.136     424.014    -766.790
  H      363.336     416.064    -764.300
  H      363.227     425.201    -765.471
  P      359.682     425.946    -763.369
  C      357.687     427.593    -763.469
  O      358.120     426.248    -763.608
  O      360.617     426.900    -764.029
  O      359.809     426.060    -761.764
  H      360.282     426.893    -761.562
  H      356.635     427.650    -763.654
  H      358.207     428.209    -764.173
  H      357.894     427.933    -762.476

 6  7  8  9  10  11  12  13  14  15  16  26  30  31  32  33  35 0
 6-311+G(2d,p)
 ****
 37  38 0
 6-311+G(2d,p)
 ****
 1  2  3  4  5  17  18  19  20  21  22  23  24  25 0
 3-21G
 ****
 27  28  29  34  36  39  40  41  42  43  44  45  46 0
 3-21G
 ****


