%nproc=1
%NoSave
%Mem=1900MB
#P OB98/GEN NMR

erre ene a

0 1
  C      475.155    -140.659     246.256
  O      476.044    -141.182     247.222
  H      475.281    -141.213     245.324
  H      475.399    -139.608     246.075
  H      474.119    -140.748     246.585
  P      475.766    -140.806     248.756
  C      473.390    -140.155     249.592
  O      474.229    -141.172     249.052
  C      472.175    -140.779     250.278
  O      471.447    -141.583     249.298
  C      472.521    -141.688     251.469
  O      471.519    -141.533     252.480
  C      472.385    -143.081     250.873
  O      472.137    -144.077     251.868
  C      471.220    -142.868     249.911
  N      468.667    -147.025     248.713
  C      468.400    -146.040     249.654
  N      467.314    -146.224     250.439
  N      469.135    -144.975     249.809
  C      470.175    -144.908     248.945
  C      470.550    -145.810     247.980
  C      469.738    -147.001     247.825
  O      469.933    -147.910     247.028
  N      471.710    -145.410     247.350
  C      472.042    -144.277     247.952
  N      471.144    -143.935     248.928
  O      475.778    -139.203     248.733
  O      476.750    -141.353     249.737
  H      472.926    -144.133     252.440
  H      476.666    -138.876     248.967
  H      468.077    -147.836     248.648
  H      472.921    -143.685     247.736
  H      470.249    -142.833     250.427
  H      473.298    -143.352     250.331
  H      466.682    -147.005     250.357
  H      473.516    -141.508     251.896
  H      467.081    -145.494     251.102
  H      471.505    -139.970     250.592
  H      473.050    -139.502     248.782
  H      473.972    -139.556     250.304
  P      471.846    -140.580     253.729
  C      472.973    -138.243     253.952
  O      472.144    -139.102     253.183
  O      473.287    -141.093     254.200
  O      470.844    -140.670     254.830
  H      473.364    -141.016     255.170
  H      473.071    -137.302     253.453
  H      473.939    -138.689     254.067
  H      472.533    -138.092     254.916

 6  7  8  9  10  11  12  13  14  15  26  29  33  34 0
 6-311+G(2d,p)
 ****
 36  38  39  40  41 0
 6-311+G(2d,p)
 ****
 1  2  3  4  5  16  17  18  19  20  21  22  23  24  25 0
 3-21G
 ****
 27  28  30  31  32  35  37  42  43  44  45  46  47 0
 3-21G
 ****
 48  49 0
 3-21G
 ****


