%nproc=1
%NoSave
%Mem=1900MB
#P OB98/GEN NMR

erre ene a

0 1
  C     -229.185    -224.631     357.964
  O     -230.156    -224.656     356.910
  P     -230.059    -225.829     355.823
  C     -232.541    -226.536     355.486
  O     -231.278    -226.845     356.056
  C     -233.554    -226.191     356.581
  O     -233.183    -224.994     357.295
  C     -234.957    -225.925     356.055
  O     -235.667    -227.136     355.832
  C     -235.569    -225.163     357.218
  O     -235.976    -226.084     358.249
  C     -234.388    -224.312     357.704
  N     -237.256    -220.245     356.488
  C     -237.578    -221.461     356.983
  N     -236.762    -222.498     357.262
  C     -235.485    -222.181     356.996
  C     -235.005    -220.985     356.490
  C     -235.953    -219.983     356.231
  N     -235.617    -218.747     355.730
  N     -233.634    -221.033     356.337
  C     -233.292    -222.233     356.760
  N     -234.377    -222.967     357.161
  O     -228.785    -226.668     356.311
  O     -229.891    -225.345     354.422
  H     -235.238    -226.706     358.383
  H     -228.309    -227.025     355.537
  H     -238.634    -221.624     357.181
  H     -232.279    -222.612     356.798
  H     -234.364    -224.221     358.797
  H     -236.459    -224.597     356.928
  H     -234.927    -225.292     355.159
  H     -233.580    -227.024     357.294
  H     -232.902    -227.382     354.893
  H     -236.349    -218.068     355.595
  H     -234.645    -218.538     355.555
  H     -232.420    -225.702     354.787
  P     -235.597    -227.766     354.358
  C     -234.944    -230.244     354.781
  O     -234.512    -228.942     354.442
  O     -234.867    -226.621     353.512
  O     -236.922    -228.133     353.781
  H     -235.169    -226.646     352.584
  H     -234.165    -230.957     354.499
  H     -235.865    -230.506     354.253
  H     -235.110    -230.310     355.860
  H     -229.377    -223.797     358.606
  H     -228.205    -224.539     357.544
  H     -229.248    -225.538     358.528

 3  4  5  6  7  8  9  10  11  12  22  25  29  30  31  32 0
 6-311+G(2d,p)
 ****
 33  36  37 0
 6-311+G(2d,p)
 ****
 1  2  13  14  15  16  17  18  19  20  21  23  24  26 0
 3-21G
 ****
 27  28  34  35  38  39  40  41  42  43  44  45  46  47  48 0
 3-21G
 ****


