%nproc=1
%NoSave
%Mem=1900MB
#P OB98/GEN NMR

erre ene a

0 1
  C     -151.008     -79.399    -315.570
  O     -150.542     -78.222    -314.942
  H     -150.183     -80.113    -315.636
  H     -151.361     -79.174    -316.580
  H     -151.816     -79.846    -314.983
  P     -151.607     -77.033    -314.771
  C     -150.605     -76.099    -312.569
  O     -151.705     -76.744    -313.194
  C     -150.049     -76.967    -311.444
  O     -149.674     -78.271    -311.944
  C     -148.816     -76.392    -310.757
  O     -149.177     -75.441    -309.771
  C     -148.195     -77.650    -310.164
  O     -148.840     -78.025    -308.929
  C     -148.462     -78.690    -311.259
  N     -144.071     -81.011    -312.162
  C     -144.948     -81.144    -311.106
  N     -144.573     -81.984    -310.115
  N     -146.085     -80.507    -311.019
  C     -146.313     -79.677    -312.065
  C     -145.528     -79.470    -313.178
  C     -144.287     -80.208    -313.274
  O     -143.497     -80.182    -314.212
  N     -146.105     -78.564    -314.030
  C     -147.214     -78.197    -313.417
  N     -147.376     -78.832    -312.215
  O     -153.008     -77.736    -315.102
  O     -151.376     -75.839    -315.633
  H     -148.825     -77.269    -308.317
  H     -153.610     -77.077    -315.495
  H     -143.218     -81.543    -312.179
  H     -147.927     -77.480    -313.802
  H     -148.652     -79.686    -310.844
  H     -147.138     -77.506    -309.929
  H     -143.603     -82.228    -309.967
  H     -148.127     -75.959    -311.493
  H     -145.201     -82.072    -309.327
  H     -150.858     -77.120    -310.717
  H     -150.942     -75.144    -312.152
  H     -149.828     -75.906    -313.316
  P     -149.041     -73.886    -310.149
  C     -151.523     -73.152    -309.899
  O     -150.450     -73.452    -310.779
  O     -148.061     -73.897    -311.416
  O     -148.530     -73.017    -309.050
  H     -147.694     -73.006    -311.563
  H     -152.387     -72.882    -310.469
  H     -151.246     -72.337    -309.263
  H     -151.745     -74.011    -309.301

 6  7  8  9  10  11  12  13  14  15  26  29  33  34 0
 6-311+G(2d,p)
 ****
 36  38  39  40  41 0
 6-311+G(2d,p)
 ****
 1  2  3  4  5  16  17  18  19  20  21  22  23  24  25 0
 3-21G
 ****
 27  28  30  31  32  35  37  42  43  44  45  46  47 0
 3-21G
 ****
 48  49 0
 3-21G
 ****


