%nproc=1
%NoSave
%Mem=1900MB
#P OB98/GEN NMR

erre ene a

0 1
  C       53.353     -58.275     -79.372
  O       53.511     -57.060     -80.078
  H       53.608     -58.108     -78.323
  H       54.022     -59.037     -79.781
  H       52.316     -58.615     -79.436
  P       53.240     -57.114     -81.658
  C       55.758     -57.215     -82.268
  O       54.499     -57.872     -82.305
  C       56.818     -58.049     -82.982
  O       56.963     -59.339     -82.351
  C       56.524     -58.310     -84.455
  O       56.942     -57.219     -85.257
  C       57.344     -59.568     -84.701
  O       58.738     -59.246     -84.902
  C       57.149     -60.341     -83.389
  N       55.866     -65.223     -83.467
  C       57.107     -64.626     -83.559
  N       58.165     -65.450     -83.725
  N       57.298     -63.335     -83.507
  C       56.148     -62.630     -83.397
  C       54.859     -63.102     -83.299
  C       54.669     -64.537     -83.304
  O       53.605     -65.128     -83.143
  N       53.960     -62.073     -83.183
  C       54.701     -60.982     -83.245
  N       56.034     -61.268     -83.381
  O       53.446     -55.595     -82.125
  O       51.899     -57.624     -82.062
  H       58.845     -58.833     -85.777
  H       52.791     -55.390     -82.819
  H       55.782     -66.223     -83.482
  H       54.322     -59.971     -83.187
  H       58.040     -60.921     -83.120
  H       57.017     -60.092     -85.600
  H       58.059     -66.397     -84.060
  H       55.462     -58.534     -84.611
  H       59.064     -65.007     -83.867
  H       57.777     -57.527     -82.868
  H       56.051     -57.072     -81.222
  H       55.669     -56.237     -82.751
  P       55.862     -56.530     -86.220
  C       56.891     -57.588     -88.356
  O       55.736     -57.428     -87.545
  O       56.622     -55.216     -86.727
  O       54.572     -56.179     -85.559
  H       56.262     -54.430     -86.276
  H       56.654     -58.207     -89.196
  H       57.669     -58.048     -87.782
  H       57.220     -56.630     -88.701

 6  7  8  9  10  11  12  13  14  15  26  29  33  34 0
 6-311+G(2d,p)
 ****
 36  38  39  40  41 0
 6-311+G(2d,p)
 ****
 1  2  3  4  5  16  17  18  19  20  21  22  23  24  25 0
 3-21G
 ****
 27  28  30  31  32  35  37  42  43  44  45  46  47 0
 3-21G
 ****
 48  49 0
 3-21G
 ****


