%nproc=1
%NoSave
%Mem=1900MB
#P OB98/GEN NMR

erre ene a

0 1
  C      249.983     -64.760     242.673
  O      250.670     -65.388     243.753
  P      251.765     -66.532     243.577
  C      250.311     -68.606     244.286
  O      251.018     -67.895     243.267
  C      250.122     -70.079     243.958
  O      251.398     -70.714     243.713
  C      249.529     -70.834     245.187
  O      248.119     -70.793     245.400
  C      250.128     -72.226     245.139
  O      249.284     -73.157     244.467
  C      251.434     -72.024     244.364
  N      253.879     -74.739     247.920
  C      252.607     -74.924     247.416
  N      251.868     -75.928     247.950
  N      252.091     -74.176     246.453
  C      252.900     -73.147     246.080
  C      254.174     -72.856     246.534
  C      254.757     -73.734     247.564
  O      255.880     -73.623     248.020
  N      254.674     -71.711     245.918
  C      253.701     -71.341     245.124
  N      252.603     -72.162     245.191
  O      252.827     -66.570     244.645
  O      252.494     -66.149     242.179
  H      249.838     -73.959     244.249
  H      253.439     -66.438     242.279
  H      254.224     -75.361     248.641
  H      253.733     -70.450     244.486
  H      251.522     -72.747     243.548
  H      250.302     -72.617     246.164
  H      252.172     -76.467     248.744
  H      249.944     -70.356     246.087
  H      250.891     -75.931     247.728
  H      249.522     -70.229     243.063
  H      249.336     -68.099     244.390
  H      250.834     -68.492     245.248
  P      247.350     -69.959     246.541
  C      248.103     -71.538     248.426
  O      248.088     -70.188     247.933
  O      245.953     -70.734     246.721
  O      247.110     -68.507     246.195
  H      245.306     -70.160     247.179
  H      248.342     -71.543     249.500
  H      248.860     -72.102     247.900
  H      247.098     -71.988     248.264
  H      249.304     -64.029     243.059
  H      249.438     -65.497     242.120
  H      250.692     -64.283     242.029

 3  4  5  6  7  8  9  10  11  12  23  26  30  31 0
 6-311+G(2d,p)
 ****
 33  35  36  37  38 0
 6-311+G(2d,p)
 ****
 1  2  13  14  15  16  17  18  19  20  21  22  24  25 0
 3-21G
 ****
 27  28  29  32  34  39  40  41  42  43  44  45  46  47  48  49 0
 3-21G
 ****


