%nproc=1
%NoSave
%Mem=1900MB
#P OB98/GEN NMR

erre ene a

0 1
  C      628.703      39.548     258.044
  O      629.953      40.125     258.379
  H      628.622      38.575     258.530
  H      628.633      39.408     256.960
  H      627.886      40.189     258.391
  P      630.285      41.543     257.706
  C      632.438      40.593     256.604
  O      631.876      41.570     257.472
  C      633.962      40.641     256.656
  O      634.457      41.802     255.960
  C      634.537      40.692     258.068
  O      634.630      39.394     258.627
  C      635.901      41.316     257.807
  O      636.838      40.329     257.320
  C      635.580      42.344     256.714
  N      637.250      46.281     259.405
  C      637.827      45.047     259.180
  N      639.017      44.813     259.779
  N      637.289      44.115     258.438
  C      636.072      44.464     257.946
  C      635.395      45.652     258.103
  C      636.034      46.695     258.879
  O      635.611      47.840     259.050
  N      634.199      45.634     257.434
  C      634.135      44.424     256.904
  N      635.251      43.674     257.195
  O      630.071      42.586     258.903
  O      629.451      41.906     256.525
  H      636.584      40.067     256.414
  H      629.672      43.401     258.544
  H      637.730      46.971     259.958
  H      633.320      44.044     256.299
  H      636.415      42.470     256.008
  H      636.336      41.729     258.717
  H      639.335      45.357     260.572
  H      633.951      41.362     258.709
  H      639.401      43.878     259.672
  H      634.339      39.759     256.120
  H      632.100      40.797     255.582
  H      632.082      39.598     256.902
  P      634.406      39.234     260.206
  C      636.784      39.277     261.257
  O      635.692      38.483     260.816
  O      633.251      38.128     260.297
  O      634.002      40.487     260.911
  H      632.404      38.556     260.537
  H      637.558      38.641     261.634
  H      636.455      39.937     262.032
  H      637.162      39.851     260.437

 6  7  8  9  10  11  12  13  14  15  26  29  33  34 0
 6-311+G(2d,p)
 ****
 36  38  39  40  41 0
 6-311+G(2d,p)
 ****
 1  2  3  4  5  16  17  18  19  20  21  22  23  24  25 0
 3-21G
 ****
 27  28  30  31  32  35  37  42  43  44  45  46  47 0
 3-21G
 ****
 48  49 0
 3-21G
 ****


