%nproc=1
%NoSave
%Mem=1900MB
#P OB98/GEN NMR

erre ene a

0 1
  C     -218.269     102.498      36.950
  O     -219.019     103.590      36.457
  H     -218.592     101.590      36.435
  H     -218.447     102.373      38.021
  H     -217.200     102.642      36.765
  P     -218.604     105.074      36.898
  C     -218.653     106.428      39.093
  O     -218.748     105.144      38.494
  C     -218.708     106.302      40.615
  O     -217.572     105.550      41.093
  C     -218.665     107.633      41.354
  O     -219.915     108.294      41.281
  C     -218.259     107.174      42.746
  O     -219.396     106.661      43.463
  C     -217.260     106.039      42.415
  N     -215.863     106.463      42.502
  C     -215.376     106.740      43.775
  O     -216.070     106.674      44.789
  N     -214.052     107.110      43.844
  C     -213.224     107.305      42.781
  O     -212.062     107.693      42.891
  C     -213.802     107.037      41.453
  C     -215.074     106.630      41.379
  O     -219.276     106.185      36.160
  O     -217.016     105.102      36.679
  H     -219.054     106.301      44.305
  H     -216.806     105.553      35.841
  H     -213.690     107.324      44.757
  H     -213.170     107.183      40.587
  H     -215.520     106.427      40.409
  H     -217.402     105.194      43.101
  H     -217.839     107.976      43.350
  H     -217.863     108.267      40.948
  H     -219.615     105.739      40.875
  H     -219.496     107.041      38.747
  H     -217.714     106.899      38.776
  P     -219.990     109.878      41.064
  C     -219.427     111.976      42.424
  O     -219.673     110.576      42.476
  O     -221.229     110.372      40.390
  O     -218.688     110.215      40.194
  H     -218.947     110.407      39.274
  H     -219.228     112.340      43.410
  H     -220.286     112.475      42.026
  H     -218.582     112.167      41.796

 6  7  8  9  10  11  12  13  14  15  16  26  31  32  33  34  35 0
 6-311+G(2d,p)
 ****
 36  37 0
 6-311+G(2d,p)
 ****
 1  2  3  4  5  17  18  19  20  21  22  23  24  25 0
 3-21G
 ****
 27  28  29  30  38  39  40  41  42  43  44  45 0
 3-21G
 ****


