%nproc=1
%NoSave
%Mem=1900MB
#P OB98/GEN NMR

erre ene a

0 1
  C     -463.957    -156.253      84.134
  O     -463.702    -154.958      84.697
  P     -464.677    -154.464      85.877
  C     -466.935    -154.128      84.597
  O     -466.154    -154.940      85.466
  C     -468.354    -154.691      84.453
  O     -468.956    -154.854      85.780
  C     -469.309    -153.818      83.615
  O     -470.140    -154.720      82.876
  C     -470.116    -153.086      84.669
  O     -471.360    -152.618      84.152
  C     -470.229    -154.181      85.748
  N     -470.587    -153.649      87.066
  C     -471.889    -153.175      87.219
  O     -472.699    -153.136      86.304
  N     -472.205    -152.717      88.473
  C     -471.354    -152.614      89.530
  O     -471.693    -152.198      90.627
  C     -469.955    -153.015      89.266
  C     -469.651    -153.502      88.072
  O     -464.684    -152.883      85.641
  O     -464.210    -154.898      87.233
  H     -464.666    -152.631      84.698
  H     -471.917    -152.304      84.899
  H     -473.158    -152.415      88.627
  H     -469.233    -152.897      90.072
  H     -468.624    -153.791      87.838
  H     -470.989    -154.922      85.463
  H     -469.557    -152.231      85.049
  H     -468.772    -153.151      82.928
  H     -468.267    -155.693      84.005
  H     -466.473    -154.081      83.606
  H     -466.960    -153.096      84.995
  P     -469.606    -155.253      81.448
  C     -470.390    -153.720      79.465
  O     -469.463    -153.968      80.499
  O     -470.945    -155.958      80.891
  O     -468.451    -156.184      81.515
  H     -471.731    -155.400      80.999
  H     -470.255    -152.699      79.100
  H     -471.411    -153.828      79.828
  H     -470.222    -154.419      78.630
  H     -463.241    -156.455      83.365
  H     -464.942    -156.273      83.717
  H     -463.878    -156.996      84.899

 3  4  5  6  7  8  9  10  11  12  13  24  28  29  30  31  32 0
 6-311+G(2d,p)
 ****
 33  34 0
 6-311+G(2d,p)
 ****
 1  2  14  15  16  17  18  19  20  21  22  23  25  26  27 0
 3-21G
 ****
 35  36  37  38  39  40  41  42  43  44  45 0
 3-21G
 ****


