%nproc=1
%NoSave
%Mem=1900MB
#P OB98/GEN NMR

erre ene a

0 1
  C      -69.379      92.980     -44.937
  O      -69.795      91.642     -45.236
  P      -68.769      90.472     -44.829
  C      -69.938      88.161     -45.032
  O      -69.152      89.159     -45.672
  C      -71.435      88.462     -45.133
  O      -71.778      88.710     -46.519
  C      -72.352      87.338     -44.638
  O      -73.489      87.926     -43.989
  C      -72.843      86.695     -45.921
  O      -74.069      85.992     -45.737
  C      -72.940      87.922     -46.824
  N      -75.915      87.259     -50.859
  C      -76.230      87.723     -49.599
  N      -77.525      88.033     -49.377
  N      -75.353      87.872     -48.641
  C      -74.090      87.554     -49.015
  C      -73.651      87.093     -50.237
  C      -74.640      86.894     -51.273
  O      -74.432      86.436     -52.394
  N      -72.293      86.880     -50.233
  C      -71.917      87.202     -49.012
  N      -72.971      87.609     -48.235
  O      -69.202      90.113     -43.331
  O      -67.335      90.878     -44.899
  H      -74.349      85.668     -46.614
  H      -68.436      90.206     -42.732
  H      -76.632      87.145     -51.554
  H      -70.907      87.137     -48.632
  H      -73.827      88.521     -46.589
  H      -72.091      85.984     -46.283
  H      -78.239      88.004     -50.088
  H      -71.868      86.622     -43.966
  H      -77.767      88.418     -48.472
  H      -71.636      89.387     -44.581
  H      -69.656      88.101     -43.977
  H      -69.716      87.193     -45.492
  P      -73.272      88.424     -42.480
  C      -74.363      90.784     -42.527
  O      -74.486      89.421     -42.170
  O      -72.003      89.393     -42.590
  O      -73.062      87.321     -41.497
  H      -71.524      89.420     -41.741
  H      -73.498      90.967     -43.169
  H      -74.262      91.382     -41.618
  H      -75.267      91.094     -43.058
  H      -70.137      93.668     -45.251
  H      -68.467      93.194     -45.454
  H      -69.223      93.078     -43.883

 3  4  5  6  7  8  9  10  11  12  23  26  30  31  33  0
 6-311+G(2d,p)
 ****
 35  36  37  38 0
 6-311+G(2d,p)
 ****
 1  2  13  14  15  16  17  18  19  20  21  22  24  25  27  28  29 0
 3-21G
 ****
 32  34  39  40  41  42  43  44  45  46  47  48  49 0
 3-21G
 ****


