%nproc=1
%NoSave
%Mem=1900MB
#P OB98/GEN NMR

erre ene a

0 1
  C       13.136    -244.514     -20.351
  O       13.424    -245.643     -19.544
  P       12.294    -246.117     -18.505
  C       13.288    -244.944     -16.410
  O       13.000    -246.175     -17.063
  C       13.941    -245.179     -15.047
  O       14.407    -243.910     -14.525
  C       13.009    -245.806     -14.007
  O       13.783    -246.707     -13.213
  C       12.594    -244.627     -13.148
  O       12.198    -245.038     -11.840
  C       13.861    -243.758     -13.199
  N       13.583    -242.357     -12.893
  C       13.861    -241.928     -11.591
  O       14.245    -242.736     -10.745
  N       13.648    -240.610     -11.269
  C       13.104    -239.818     -12.139
  N       12.916    -238.521     -11.774
  C       12.681    -240.262     -13.481
  C       12.968    -241.524     -13.795
  O       12.090    -247.659     -18.877
  O       11.018    -245.343     -18.577
  H       12.995    -245.378     -11.375
  H       11.167    -247.936     -18.720
  H       12.197    -239.569     -14.155
  H       12.716    -241.930     -14.767
  H       14.612    -244.127     -12.486
  H       11.751    -244.102     -13.615
  H       12.166    -246.338     -14.457
  H       14.824    -245.812     -15.196
  H       13.200    -238.245     -10.842
  H       12.353    -244.398     -16.251
  H       12.497    -237.832     -12.383
  H       13.933    -244.336     -17.050
  P       13.098    -248.091     -12.778
  C       14.083    -248.192     -10.408
  O       14.110    -248.736     -11.713
  O       13.371    -249.001     -14.071
  O       11.651    -248.082     -12.419
  H       12.940    -249.869     -13.957
  H       14.712    -248.806      -9.758
  H       13.064    -248.189     -10.015
  H       14.482    -247.173     -10.422
  H       13.969    -244.311     -20.991
  H       12.952    -243.666     -19.725
  H       12.269    -244.713     -20.946

 3  4  5  6  7  8  9  10  11  12  13  21  23  27  28  29  30  32 0
 6-311+G(2d,p)
 ****
 34  35 0
 6-311+G(2d,p)
 ****
 1  2  14  15  16  17  18  19  20  22  24  25  26 0
 3-21G
 ****
 31  33  36  37  38  39  40  41  42  43  44  45  46 0
 3-21G
 ****


