%nproc=1
%NoSave
%Mem=1900MB
#P OB98/GEN NMR

erre ene a

0 1
  C      -89.527     -55.373      92.878
  O      -89.152     -54.013      92.966
  H      -89.818     -55.721      93.872
  H      -88.684     -55.973      92.524
  H      -90.377     -55.489      92.201
  P      -88.704     -53.308      91.597
  C      -86.277     -54.248      91.750
  O      -87.493     -54.188      91.021
  C      -85.107     -54.565      90.812
  O      -85.355     -55.852      90.174
  C      -84.920     -53.540      89.683
  O      -83.527     -53.522      89.328
  C      -85.724     -54.170      88.558
  O      -85.428     -53.562      87.322
  C      -85.321     -55.629      88.747
  N      -85.761     -58.810      84.770
  C      -84.728     -58.061      85.212
  N      -84.682     -57.248      86.286
  C      -85.851     -57.266      86.948
  C      -86.990     -57.985      86.623
  C      -86.919     -58.786      85.471
  N      -87.972     -59.544      85.013
  N      -87.997     -57.743      87.539
  C      -87.473     -56.894      88.400
  N      -86.184     -56.572      88.078
  O      -87.995     -51.961      92.091
  O      -89.802     -53.038      90.624
  H      -85.956     -53.964      86.600
  H      -88.633     -51.224      92.071
  H      -83.817     -58.121      84.622
  H      -87.981     -56.477      89.261
  H      -84.296     -55.816      88.407
  H      -86.797     -54.037      88.724
  H      -85.239     -52.530      89.954
  H      -84.193     -54.677      91.406
  H      -86.367     -55.031      92.510
  H      -86.099     -53.287      92.243
  H      -87.846     -60.079      84.169
  H      -88.847     -59.522      85.515
  P      -82.622     -52.269      89.770
  C      -82.842     -50.768      87.639
  O      -83.153     -50.960      89.010
  O      -81.247     -52.564      88.997
  O      -82.385     -52.126      91.236
  H      -80.505     -52.166      89.491
  H      -83.275     -49.850      87.300
  H      -83.237     -51.581      87.066
  H      -81.780     -50.728      87.516

 6  7  8  9  10  11  12  13  14  15  25  28  32  33  34  35 0
 6-311+G(2d,p)
 ****
 36  37  40 0
 6-311+G(2d,p)
 ****
 1  2  3  4  5  16  17  18  19  20  21  22  23  24 0
 3-21G
 ****
 26  27  29  30  31  38  39 41  42  43  44  45  46  47  48 0
 3-21G
 ****


