%nproc=1
%NoSave
%Mem=1900MB
#P OB98/GEN NMR

erre ene a

0 1
  C     -110.560    -702.199     -56.970
  O     -109.165    -701.965     -56.788
  P     -108.714    -700.688     -55.931
  C     -108.695    -701.764     -53.507
  O     -108.002    -701.170     -54.581
  C     -107.737    -702.666     -52.718
  O     -107.478    -703.882     -53.453
  C     -106.384    -702.014     -52.448
  O     -106.406    -701.228     -51.254
  C     -105.459    -703.216     -52.349
  O     -105.612    -703.871     -51.074
  C     -106.029    -704.108     -53.485
  N     -105.543    -703.893     -54.859
  C     -104.495    -704.665     -55.354
  O     -103.918    -705.548     -54.711
  N     -104.112    -704.408     -56.652
  C     -104.762    -703.603     -57.535
  O     -104.410    -703.453     -58.698
  C     -105.956    -702.934     -57.010
  C     -106.277    -703.087     -55.723
  O     -110.087    -700.062     -55.430
  O     -107.881    -699.700     -56.696
  H     -105.476    -703.194     -50.393
  H     -110.217    -699.173     -55.819
  H     -103.308    -704.909     -56.996
  H     -106.528    -702.315     -57.691
  H     -107.161    -702.588     -55.326
  H     -105.864    -705.179     -53.248
  H     -104.420    -702.929     -52.431
  H     -106.069    -701.409     -53.295
  H     -108.215    -702.953     -51.768
  H     -109.549    -702.344     -53.861
  H     -109.098    -700.979     -52.858
  P     -105.615    -699.839     -51.198
  C     -107.451    -698.355     -52.201
  O     -106.736    -698.717     -51.031
  O     -104.618    -699.615     -52.283
  O     -104.922    -699.856     -49.754
  H     -103.993    -700.179     -49.802
  H     -108.285    -697.712     -51.932
  H     -107.842    -699.261     -52.700
  H     -106.786    -697.823     -52.889
  H     -110.700    -703.081     -57.559
  H     -111.000    -701.362     -57.471
  H     -111.027    -702.329     -56.016

 3  4  5  6  7  8  9  10  11  12  13  23  28  29  30  31  32 0
 6-311+G(2d,p)
 ****
 33  34 0
 6-311+G(2d,p)
 ****
 1  2  14  15  16  17  18  19  20  21  22  24  25  26  27 0
 3-21G
 ****
 35  36  37  38  39  40  41  42  43  44  45 0
 3-21G
 ****


