%nproc=1
%NoSave
%Mem=1900MB
#P OB98/GEN NMR

erre ene a

0 1
  C     -517.137     117.017    -143.137
  O     -516.777     116.771    -144.487
  P     -516.126     115.361    -144.858
  C     -513.848     114.195    -144.383
  O     -514.755     115.220    -144.028
  C     -512.466     114.471    -143.785
  O     -511.874     115.626    -144.445
  C     -512.480     114.761    -142.281
  O     -511.272     114.240    -141.720
  C     -512.450     116.279    -142.239
  O     -512.023     116.796    -140.985
  C     -511.501     116.557    -143.404
  N     -511.555     117.941    -143.868
  C     -510.957     118.910    -143.073
  O     -510.388     118.671    -142.006
  N     -511.083     120.206    -143.509
  C     -511.808     120.620    -144.584
  O     -511.980     121.806    -144.852
  C     -512.420     119.554    -145.393
  C     -512.268     118.284    -145.009
  O     -515.636     115.562    -146.366
  O     -517.048     114.186    -144.719
  H     -511.841     117.746    -141.110
  H     -516.271     115.163    -146.984
  H     -510.643     120.921    -142.951
  H     -512.983     119.848    -146.269
  H     -512.723     117.478    -145.571
  H     -510.472     116.317    -143.121
  H     -513.454     116.673    -142.439
  H     -513.350     114.342    -141.761
  H     -511.815     113.610    -144.001
  H     -513.763     114.149    -145.473
  H     -514.232     113.222    -144.041
  P     -511.323     113.650    -140.220
  C     -509.967     114.461    -138.137
  O     -510.761     114.798    -139.254
  O     -510.135     112.580    -140.281
  O     -512.649     113.052    -139.856
  H     -509.343     112.917    -140.741
  H     -509.331     113.589    -138.346
  H     -510.612     114.244    -137.290
  H     -509.328     115.313    -137.894
  H     -517.556     117.998    -143.053
  H     -516.267     116.947    -142.517
  H     -517.859     116.292    -142.823

 3  4  5  6  7  8  9  10  11  12  13  23  28  29  30  31  32 0
 6-311+G(2d,p)
 ****
 33  34 0
 6-311+G(2d,p)
 ****
 1  2  14  15  16  17  18  19  20  21  22  24  25  26 0
 3-21G
 ****
 27  35  36  37  38  39  40  41  42  43  44  45 0
 3-21G
 ****


