%nproc=1
%NoSave
%Mem=1900MB
#P OB98/GEN NMR

erre ene a

0 1
  C      121.079     -99.634     144.191
  O      121.649    -100.518     145.132
  H      121.791     -99.483     143.377
  H      120.879     -98.670     144.663
  H      120.155    -100.042     143.773
  P      120.715    -101.140     146.276
  C      120.955    -103.529     145.335
  O      120.065    -102.471     145.656
  C      120.232    -104.630     144.553
  O      119.528    -104.025     143.431
  C      121.167    -105.707     143.983
  O      120.434    -106.938     143.950
  C      121.402    -105.195     142.575
  O      121.906    -106.208     141.734
  C      120.011    -104.659     142.230
  N      120.032    -103.740     141.093
  C      119.712    -104.278     139.854
  O      119.452    -105.470     139.683
  N      119.743    -103.413     138.796
  C      120.116    -102.103     138.849
  O      120.157    -101.380     137.863
  C      120.488    -101.598     140.180
  C      120.427    -102.425     141.227
  O      119.739    -100.200     146.897
  O      121.746    -101.726     147.351
  H      121.183    -106.812     141.459
  H      121.356    -101.689     148.245
  H      119.502    -103.786     137.891
  H      120.798    -100.564     140.256
  H      120.694    -102.082     142.220
  H      119.327    -105.482     141.986
  H      122.135    -104.381     142.578
  H      122.088    -105.824     144.556
  H      119.468    -105.076     145.202
  H      121.348    -103.936     146.272
  H      121.787    -103.138     144.740
  P      120.659    -108.094     145.039
  C      118.342    -107.604     146.052
  O      119.731    -107.790     146.312
  O      122.092    -108.350     145.374
  O      119.987    -109.397     144.393
  H      120.431    -110.196     144.731
  H      117.830    -107.409     146.971
  H      117.942    -108.488     145.601
  H      118.211    -106.775     145.388

 6  7  8  9  10  11  12  13  14  15  16  26  31  32  33  34  35 0
 6-311+G(2d,p)
 ****
 36  37 0
 6-311+G(2d,p)
 ****
 1  2  3  4  5  17  18  19  20  21  22  23  24  25 0
 3-21G
 ****
 27  28  29  30  38  39  40  41  42  43  44  45 0
 3-21G
 ****


