%nproc=1
%NoSave
%Mem=1900MB
#P OB98/GEN NMR

erre ene a

0 1
  C      413.044     739.263    -241.682
  O      412.556     740.554    -241.409
  P      411.389     741.206    -242.290
  C      411.781     743.818    -242.370
  O      411.133     742.695    -241.783
  C      411.632     745.031    -241.443
  O      410.254     745.497    -241.456
  C      411.998     744.675    -240.019
  O      413.375     745.018    -239.761
  C      411.021     745.504    -239.212
  O      411.484     746.879    -239.101
  C      409.744     745.441    -240.098
  N      408.879     744.236    -239.971
  C      408.234     743.993    -238.769
  O      408.288     744.732    -237.790
  N      407.487     742.824    -238.737
  C      407.329     741.953    -239.780
  O      406.889     740.820    -239.647
  C      407.823     742.416    -241.075
  C      408.584     743.501    -241.117
  O      410.084     740.417    -241.813
  O      411.583     741.119    -243.766
  H      411.342     747.298    -239.958
  H      409.859     739.707    -242.424
  H      407.123     742.574    -237.825
  H      407.592     741.818    -241.943
  H      408.991     743.849    -242.057
  H      409.116     746.324    -239.934
  H      410.941     745.127    -238.195
  H      411.811     743.620    -239.819
  H      412.263     745.844    -241.837
  H      411.314     744.017    -243.350
  H      412.822     743.595    -242.561
  P      414.463     743.842    -239.711
  C      415.619     745.721    -238.396
  O      415.796     744.547    -239.162
  O      414.622     743.059    -240.981
  O      413.963     742.923    -238.508
  H      413.471     742.155    -238.855
  H      416.575     746.003    -237.948
  H      414.865     745.551    -237.622
  H      415.294     746.537    -239.058
  H      413.816     739.018    -240.982
  H      413.441     739.234    -242.675
  H      412.247     738.555    -241.596

 3  4  5  6  7  8  9  10  11  12  13  23  28  29  30  31  32 0
 6-311+G(2d,p)
 ****
 33  34 0
 6-311+G(2d,p)
 ****
 1  2  14  15  16  17  18  19  20  21  22  24  25  26  27 0
 3-21G
 ****
 35  36  37  38  39  40  41  42  43  44  45 0
 3-21G
 ****


