%nproc=1
%NoSave
%Mem=1900MB
#P OB98/GEN NMR

erre ene a

0 1
  C      191.287     123.183    -283.229
  O      191.054     122.957    -284.605
  P      189.721     122.217    -285.120
  C      190.943     120.944    -287.012
  O      189.975     121.924    -286.678
  C      191.880     121.475    -288.104
  O      191.115     121.655    -289.321
  C      192.547     122.813    -287.767
  O      193.859     122.789    -288.340
  C      191.664     123.817    -288.487
  O      192.333     125.046    -288.738
  C      191.290     123.027    -289.741
  N      190.086     123.535    -290.389
  C      190.211     124.675    -291.188
  O      191.294     125.240    -291.317
  N      189.094     125.154    -291.824
  C      187.940     124.597    -291.614
  N      186.875     125.075    -292.318
  C      187.747     123.465    -290.695
  C      188.853     122.976    -290.142
  O      188.450     122.936    -284.822
  O      189.816     120.756    -284.487
  H      191.776     125.582    -289.336
  H      189.453     120.709    -283.566
  H      186.760     123.053    -290.530
  H      188.811     122.128    -289.474
  H      192.124     123.028    -290.457
  H      190.783     124.033    -287.875
  H      192.625     122.991    -286.690
  H      192.640     120.710    -288.304
  H      187.077     125.734    -293.061
  H      190.423     120.061    -287.395
  H      186.046     124.508    -292.456
  H      191.501     120.654    -286.120
  P      195.110     122.526    -287.364
  C      195.756     125.026    -287.146
  O      196.145     123.737    -287.546
  O      195.862     121.327    -288.127
  O      194.788     122.111    -285.968
  H      196.376     120.810    -287.480
  H      196.580     125.719    -287.333
  H      195.527     125.045    -286.074
  H      194.882     125.363    -287.715
  H      192.224     123.685    -283.104
  H      191.313     122.246    -282.713
  H      190.501     123.789    -282.829

 3  4  5  6  7  8  9  10  11  12  13  23  27  28  29  30  32 0
 6-311+G(2d,p)
 ****
 34  35 0
 6-311+G(2d,p)
 ****
 1  2  14  15  16  17  18  19  20  21  22  24  25  26 0
 3-21G
 ****
 31  33  36  37  38  39  40  41  42  43  44  45  46 0
 3-21G
 ****


