%nproc=1
%NoSave
%Mem=1900MB
#P OB98/GEN NMR

erre ene a

0 1
  C      -22.640     483.210     183.879
  O      -23.053     484.165     182.921
  H      -23.314     482.354     183.834
  H      -22.687     483.646     184.880
  H      -21.620     482.874     183.666
  P      -22.099     485.432     182.699
  C      -23.207     486.950     184.532
  O      -22.057     486.245     184.083
  C      -22.784     488.201     185.299
  O      -21.961     487.861     186.434
  C      -21.919     489.154     184.497
  O      -22.641     489.834     183.493
  C      -21.406     490.061     185.608
  O      -22.399     491.028     185.987
  C      -21.172     489.043     186.749
  N      -19.763     488.717     186.930
  C      -19.218     489.046     188.174
  O      -19.920     489.572     189.041
  N      -17.883     488.806     188.395
  C      -17.164     488.260     187.464
  N      -15.849     488.055     187.739
  C      -17.706     487.873     186.143
  C      -18.998     488.131     185.947
  O      -22.985     486.376     181.760
  O      -20.743     485.120     182.155
  H      -22.128     491.368     186.862
  H      -23.871     486.560     182.117
  H      -17.071     487.411     185.400
  H      -19.474     487.881     185.009
  H      -21.557     489.435     187.699
  H      -20.518     490.621     185.305
  H      -21.061     488.621     184.071
  H      -23.692     488.696     185.671
  H      -15.508     488.351     188.641
  H      -23.840     486.309     185.151
  H      -15.189     487.665     187.080
  H      -23.788     487.232     183.647
  P      -21.885     490.451     182.221
  C      -21.094     492.508     183.552
  O      -20.698     491.362     182.804
  O      -22.761     491.131     181.229
  O      -21.078     489.193     181.624
  H      -20.443     488.791     182.243
  H      -20.224     493.033     183.887
  H      -21.672     492.200     184.398
  H      -21.683     493.152     182.933

 6  7  8  9  10  11  12  13  14  15  16  26  30  31  32  33  35 0
 6-311+G(2d,p)
 ****
 37  38 0
 6-311+G(2d,p)
 ****
 1  2  3  4  5  17  18  19  20  21  22  23  24  25 0
 3-21G
 ****
 27  28  29  34  36  39  40  41  42  43  44  45  46 0
 3-21G
 ****


