%nproc=1
%NoSave
%Mem=1900MB
#P OB98/GEN NMR

erre ene a

0 1
  C     -260.220      -4.438    -103.321
  O     -261.368      -5.205    -102.987
  P     -261.169      -6.787    -102.789
  C     -259.946      -8.601    -104.188
  O     -260.594      -7.330    -104.183
  C     -260.299      -9.375    -105.450
  O     -261.696      -9.732    -105.432
  C     -260.097      -8.600    -106.744
  O     -258.738      -8.607    -107.159
  C     -260.966      -9.403    -107.707
  O     -260.243     -10.559    -108.165
  C     -262.138      -9.828    -106.804
  N     -266.746      -9.530    -108.899
  C     -265.820     -10.550    -108.942
  N     -266.182     -11.665    -109.617
  N     -264.643     -10.492    -108.376
  C     -264.430      -9.333    -107.703
  C     -265.272      -8.245    -107.587
  C     -266.552      -8.306    -108.263
  O     -267.386      -7.404    -108.316
  N     -264.711      -7.262    -106.814
  C     -263.555      -7.765    -106.424
  N     -263.328      -9.008    -106.964
  O     -262.675      -7.341    -102.768
  O     -260.417      -7.184    -101.562
  H     -260.864     -11.096    -108.692
  H     -262.710      -8.182    -102.272
  H     -267.642      -9.638    -109.334
  H     -262.861      -7.273    -105.760
  H     -262.414     -10.876    -106.981
  H     -261.262      -8.836    -108.592
  H     -267.120     -11.823    -109.957
  H     -260.488      -7.583    -106.664
  H     -265.527     -12.443    -109.629
  H     -259.710     -10.302    -105.458
  H     -260.271      -9.175    -103.316
  H     -258.865      -8.445    -104.119
  P     -258.082      -7.180    -107.491
  C     -258.691      -5.321    -109.206
  O     -258.796      -6.687    -108.830
  O     -256.596      -7.562    -107.961
  O     -258.085      -6.225    -106.346
  H     -255.989      -6.811    -107.800
  H     -257.709      -4.914    -108.950
  H     -259.469      -4.745    -108.691
  H     -258.837      -5.237    -110.283
  H     -260.496      -3.409    -103.422
  H     -259.812      -4.790    -104.245
  H     -259.487      -4.537    -102.547

 3  4  5  6  7  8  9  10  11  12  23  26  30  31  33  0
 6-311+G(2d,p)
 ****
 35  36  37  38 0
 6-311+G(2d,p)
 ****
 1  2  13  14  15  16  17  18  19  20  21  22  24  25  27  28  29 0
 3-21G
 ****
 32  34  39  40  41  42  43  44  45  46  47  48  49 0
 3-21G
 ****


