%nproc=1
%NoSave
%Mem=1900MB
#P OB98/GEN NMR

erre ene a

0 1
  C     -191.769     819.715    -335.005
  O     -190.501     820.284    -334.730
  P     -189.260     819.350    -334.335
  C     -188.296     819.256    -336.725
  O     -188.904     818.524    -335.666
  C     -186.839     818.833    -336.917
  O     -186.078     819.081    -335.714
  C     -186.659     817.352    -337.218
  O     -186.978     817.083    -338.575
  C     -185.191     817.162    -336.867
  O     -184.335     817.566    -337.946
  C     -185.024     818.097    -335.650
  N     -185.023     817.383    -334.387
  C     -183.815     817.385    -333.684
  O     -182.828     817.946    -334.153
  N     -183.742     816.720    -332.484
  C     -184.789     816.070    -332.043
  N     -184.651     815.425    -330.855
  C     -186.061     816.018    -332.771
  C     -186.116     816.682    -333.925
  O     -189.443     818.533    -333.102
  O     -188.042     820.393    -334.232
  H     -184.268     816.796    -338.542
  H     -188.105     820.930    -333.406
  H     -186.901     815.457    -332.369
  H     -187.019     816.690    -334.528
  H     -184.076     818.658    -335.728
  H     -184.953     816.111    -336.643
  H     -187.282     816.754    -336.548
  H     -186.411     819.443    -337.722
  H     -183.750     815.455    -330.403
  H     -188.335     820.323    -336.473
  H     -185.377     814.868    -330.446
  H     -188.868     819.104    -337.648
  P     -187.642     815.677    -338.979
  C     -189.813     816.579    -337.945
  O     -188.936     815.473    -338.062
  O     -186.703     814.519    -339.022
  O     -188.262     815.962    -340.419
  H     -188.056     815.203    -341.004
  H     -190.786     816.227    -337.592
  H     -189.939     817.075    -338.912
  H     -189.408     817.292    -337.217
  H     -192.464     820.492    -335.248
  H     -192.116     819.183    -334.144
  H     -191.686     819.040    -335.831

 3  4  5  6  7  8  9  10  11  12  13  23  27  28  29  30  32 0
 6-311+G(2d,p)
 ****
 34  35 0
 6-311+G(2d,p)
 ****
 1  2  14  15  16  17  18  19  20  21  22  24  25  26 0
 3-21G
 ****
 31  33  36  37  38  39  40  41  42  43  44  45  46 0
 3-21G
 ****


