%nproc=1
%NoSave
%Mem=1900MB
#P OB98/GEN NMR

erre ene a

0 1
  C      110.660     -69.368     -25.505
  O      111.221     -69.410     -26.802
  H      109.893     -68.591     -25.447
  H      110.201     -70.336     -25.290
  H      111.442     -69.176     -24.765
  P      111.854     -68.041     -27.347
  C      110.823     -65.680     -27.628
  O      110.619     -67.083     -27.713
  C      109.489     -64.949     -27.725
  O      108.652     -65.287     -26.601
  C      109.593     -63.429     -27.706
  O      109.978     -62.906     -28.969
  C      108.160     -63.054     -27.357
  O      107.342     -63.114     -28.540
  C      107.754     -64.168     -26.381
  N      105.414     -61.653     -22.565
  C      105.068     -61.856     -23.857
  N      105.742     -62.523     -24.815
  C      106.886     -63.029     -24.328
  C      107.370     -62.906     -23.036
  C      106.584     -62.174     -22.131
  N      106.954     -61.959     -20.821
  N      108.570     -63.570     -22.899
  C      108.809     -64.086     -24.087
  N      107.823     -63.781     -24.987
  O      112.444     -68.447     -28.782
  O      112.903     -67.431     -26.479
  H      107.684     -62.433     -29.150
  H      113.266     -67.946     -28.939
  H      104.117     -61.425     -24.161
  H      109.675     -64.688     -24.338
  H      106.740     -64.531     -26.584
  H      108.067     -62.047     -26.946
  H      110.261     -63.086     -26.908
  H      108.982     -65.292     -28.636
  H      111.470     -65.355     -28.448
  H      106.268     -61.604     -20.178
  H      107.830     -62.361     -20.503
  H      111.314     -65.452     -26.676
  P      110.241     -61.324     -29.067
  C      108.697     -59.269     -28.718
  O      108.787     -60.646     -29.064
  O      110.733     -61.132     -30.577
  O      111.224     -60.784     -28.088
  H      111.285     -60.329     -30.647
  H      107.674     -58.957     -28.759
  H      109.274     -58.689     -29.408
  H      109.075     -59.125     -27.727

 6  7  8  9  10  11  12  13  14  15  25  28  32  33  34  35 0
 6-311+G(2d,p)
 ****
 36  39  40 0
 6-311+G(2d,p)
 ****
 1  2  3  4  5  16  17  18  19  20  21  22  23  24 0
 3-21G
 ****
 26  27  29  30  31  37  38  41  42  43  44  45  46  47  48 0
 3-21G
 ****


