%nproc=1
%NoSave
%Mem=1900MB
#P OB98/GEN NMR

erre ene a

0 1
  C       -2.067      66.848     -39.537
  O       -1.789      65.683     -40.290
  H       -1.583      67.700     -40.019
  H       -1.672      66.742     -38.524
  H       -3.144      67.027     -39.500
  P       -2.431      64.316     -39.750
  C       -0.699      63.736     -37.890
  O       -2.001      64.204     -38.209
  C       -0.539      63.594     -36.372
  O       -1.608      62.737     -35.868
  C        0.786      62.946     -35.942
  O        1.126      63.453     -34.641
  C        0.393      61.481     -35.832
  O        1.374      60.745     -35.139
  C       -0.975      61.639     -35.176
  N       -1.678      56.886     -33.428
  C       -0.791      57.845     -33.089
  N       -0.673      59.092     -33.589
  C       -1.612      59.320     -34.525
  C       -2.585      58.442     -34.969
  C       -2.598      57.165     -34.380
  N       -3.494      56.182     -34.730
  N       -3.366      59.033     -35.946
  C       -2.871      60.247     -36.085
  N       -1.806      60.460     -35.253
  O       -1.557      63.189     -40.474
  O       -3.890      64.145     -40.009
  H        2.216      60.723     -35.646
  H       -2.007      62.888     -41.285
  H       -0.079      57.577     -32.312
  H       -3.235      61.001     -36.772
  H       -0.891      61.916     -34.118
  H        0.301      61.027     -36.823
  H        1.609      63.140     -36.636
  H       -0.675      64.576     -35.904
  H        0.032      64.456     -38.275
  H       -0.533      62.765     -38.366
  H       -3.425      55.287     -34.271
  H       -4.174      56.370     -35.450
  P        2.083      64.740     -34.529
  C        4.108      63.144     -34.078
  O        3.599      64.276     -34.771
  O        2.072      65.024     -32.949
  O        1.638      65.948     -35.285
  H        2.225      65.973     -32.788
  H        5.127      62.982     -34.360
  H        3.527      62.281     -34.329
  H        4.053      63.317     -33.023

 6  7  8  9  10  11  12  13  14  15  25  28  32  33  34  35 0
 6-311+G(2d,p)
 ****
 36  37  40 0
 6-311+G(2d,p)
 ****
 1  2  3  4  5  16  17  18  19  20  21  22  23  24 0
 3-21G
 ****
 26  27  29  30  31  38  39 41  42  43  44  45  46  47  48 0
 3-21G
 ****


