%nproc=1
%NoSave
%Mem=1900MB
#P OB98/GEN NMR

erre ene a

0 1
  C       57.811     120.475    -124.256
  O       58.499     121.586    -123.717
  H       57.857     119.653    -123.534
  H       58.288     120.148    -125.184
  H       56.763     120.719    -124.442
  P       58.455     122.979    -124.511
  C       59.219     123.805    -126.833
  O       59.316     122.784    -125.848
  C       60.535     123.907    -127.605
  O       61.529     124.589    -126.808
  C       61.144     122.557    -127.961
  O       60.468     121.962    -129.051
  C       62.584     122.960    -128.248
  O       62.711     123.500    -129.572
  C       62.820     124.053    -127.179
  N       63.543     123.557    -126.008
  C       64.751     122.910    -126.255
  O       65.199     122.719    -127.387
  N       65.421     122.458    -125.148
  C       64.959     122.487    -123.865
  O       65.558     121.986    -122.919
  C       63.667     123.158    -123.666
  C       63.027     123.655    -124.732
  O       58.797     124.190    -123.710
  O       56.951     123.050    -125.062
  H       62.446     122.788    -130.184
  H       56.440     123.688    -124.530
  H       66.292     121.977    -125.306
  H       63.273     123.213    -122.661
  H       62.071     124.149    -124.606
  H       63.391     124.886    -127.609
  H       63.270     122.117    -128.174
  H       61.130     121.895    -127.088
  H       60.357     124.510    -128.508
  H       59.015     124.760    -126.334
  H       58.390     123.571    -127.508
  P       60.162     120.391    -129.040
  C       61.423     118.329    -128.162
  O       61.541     119.627    -128.742
  O       59.399     119.880    -130.218
  O       59.329     120.176    -127.690
  H       58.446     119.818    -127.905
  H       62.398     117.917    -128.008
  H       60.867     117.694    -128.820
  H       60.915     118.403    -127.223

 6  7  8  9  10  11  12  13  14  15  16  26  31  32  33  34  35 0
 6-311+G(2d,p)
 ****
 36  37 0
 6-311+G(2d,p)
 ****
 1  2  3  4  5  17  18  19  20  21  22  23  24  25 0
 3-21G
 ****
 27  28  29  30  38  39  40  41  42  43  44  45 0
 3-21G
 ****


