%nproc=1
%NoSave
%Mem=1900MB
#P OB98/GEN NMR

erre ene a

0 1
  C     -409.239     507.840     326.982
  O     -410.577     507.707     327.420
  H     -408.760     506.862     327.024
  H     -408.691     508.532     327.632
  H     -409.217     508.198     325.947
  P     -411.450     509.052     327.486
  C     -411.533     511.018     329.156
  O     -411.122     509.673     328.936
  C     -411.127     511.471     330.568
  O     -411.866     510.691     331.531
  C     -409.631     511.286     330.863
  O     -409.184     512.367     331.689
  C     -409.599     509.991     331.659
  O     -408.433     509.888     332.471
  C     -410.908     510.091     332.435
  N     -409.822     506.177     335.522
  C     -409.293     507.419     335.410
  N     -409.666     508.413     334.572
  C     -410.735     508.038     333.834
  C     -411.376     506.811     333.833
  C     -410.875     505.843     334.724
  N     -411.377     504.573     334.822
  N     -412.399     506.806     332.903
  C     -412.370     508.002     332.352
  N     -411.366     508.778     332.871
  O     -412.902     508.895     327.179
  O     -410.640     510.023     326.502
  H     -408.551     509.134     333.094
  H     -409.681     509.988     326.679
  H     -408.460     507.639     336.073
  H     -413.048     508.359     331.572
  H     -410.834     510.723     333.325
  H     -409.611     509.130     330.983
  H     -409.020     511.223     329.959
  H     -411.432     512.514     330.694
  H     -412.625     511.100     329.049
  H     -410.955     503.941     335.493
  H     -412.162     504.302     334.247
  H     -411.060     511.649     328.397
  P     -407.826     513.117     331.303
  C     -405.342     512.524     330.883
  O     -406.634     512.031     331.214
  O     -407.503     514.335     332.114
  O     -408.051     513.514     329.761
  H     -407.716     514.413     329.606
  H     -404.646     511.711     330.856
  H     -405.032     513.235     331.620
  H     -405.376     512.997     329.924

 6  7  8  9  10  11  12  13  14  15  25  28  32  33  34  35 0
 6-311+G(2d,p)
 ****
 36  39  40 0
 6-311+G(2d,p)
 ****
 1  2  3  4  5  16  17  18  19  20  21  22  23  24 0
 3-21G
 ****
 26  27  29  30  31  37  38  41  42  43  44  45  46  47 0
 3-21G
 ****
 48 0
 3-21G
 ****


