%nproc=1
%NoSave
%Mem=1900MB
#P OB98/GEN NMR

erre ene a

0 1
  C     -896.780    -590.336    -326.221
  O     -895.890    -589.302    -326.682
  P     -895.070    -589.529    -328.030
  C     -896.000    -587.800    -329.738
  O     -896.000    -589.156    -329.298
  C     -897.150    -587.037    -329.111
  O     -896.990    -586.871    -327.684
  C     -897.290    -585.612    -329.645
  O     -897.710    -585.446    -330.986
  C     -898.130    -584.933    -328.568
  O     -899.530    -585.192    -328.769
  C     -897.630    -585.642    -327.269
  N     -896.730    -584.805    -326.487
  C     -897.310    -583.725    -325.837
  O     -898.500    -583.427    -325.982
  N     -896.470    -582.963    -325.098
  C     -895.130    -583.136    -324.935
  O     -894.410    -582.398    -324.268
  C     -894.560    -584.280    -325.676
  C     -895.370    -585.068    -326.391
  O     -894.320    -590.809    -328.144
  O     -894.040    -588.290    -328.010
  H     -900.000    -584.829    -327.983
  H     -893.180    -588.626    -328.330
  H     -896.880    -582.157    -324.615
  H     -893.480    -584.465    -325.563
  H     -894.980    -585.918    -326.936
  H     -898.470    -585.918    -326.643
  H     -898.000    -583.850    -328.561
  H     -896.300    -585.125    -329.589
  H     -898.080    -587.596    -329.281
  H     -896.060    -587.768    -330.830
  H     -895.030    -587.347    -329.473
  P     -896.720    -584.986    -332.157
  C     -897.010    -587.018    -333.756
  O     -896.140    -586.298    -332.903
  O     -895.730    -583.897    -331.841
  O     -897.740    -584.429    -333.249
  H     -897.320    -583.684    -333.741
  H     -896.450    -587.878    -334.138
  H     -897.320    -586.397    -334.601
  H     -897.880    -587.385    -333.214
  H     -897.247    -590.024    -325.310
  H     -896.224    -591.234    -326.048
  H     -897.530    -590.518    -326.962

 3  4  5  6  7  8  9  10  11  12  13  23  28  29  30  31  32 0
 6-311+G(2d,p)
 ****
 33  34 0
 6-311+G(2d,p)
 ****
 1  2  14  15  16  17  18  19  20  21  22  24  25  26  27 0
 3-21G
 ****
 35  36  37  38  39  40  41  42  43  44  45 0
 3-21G
 ****


