%nproc=1
%NoSave
%Mem=1900MB
#P OB98/GEN NMR

erre ene a

0 1
  C      105.548    -341.289    -223.446
  O      105.491    -340.998    -222.065
  H      105.784    -342.349    -223.573
  H      106.327    -340.695    -223.934
  H      104.579    -341.092    -223.919
  P      105.222    -339.487    -221.606
  C      106.588    -337.295    -221.516
  O      106.574    -338.668    -221.903
  C      107.564    -336.510    -222.402
  O      108.912    -336.931    -222.058
  C      107.340    -336.779    -223.902
  O      107.181    -335.579    -224.666
  C      108.502    -337.697    -224.270
  O      108.887    -337.643    -225.624
  C      109.596    -337.286    -223.275
  N      110.583    -338.333    -223.017
  C      111.751    -338.311    -223.783
  O      112.029    -337.463    -224.631
  N      112.646    -339.317    -223.521
  C      112.483    -340.325    -222.618
  O      113.326    -341.196    -222.427
  C      111.222    -340.311    -221.864
  C      110.344    -339.332    -222.090
  O      104.677    -339.316    -220.225
  O      104.212    -338.919    -222.712
  H      109.411    -336.825    -225.753
  H      103.307    -338.899    -222.348
  H      113.500    -339.303    -224.060
  H      111.056    -341.101    -221.142
  H      109.401    -339.293    -221.553
  H      110.132    -336.406    -223.634
  H      108.196    -338.727    -224.064
  H      106.394    -337.311    -224.070
  H      107.481    -335.443    -222.158
  H      106.901    -337.246    -220.468
  H      105.578    -336.878    -221.612
  P      105.776    -334.894    -224.980
  C      103.964    -335.202    -226.865
  O      105.044    -335.757    -226.118
  O      105.808    -333.413    -225.183
  O      104.901    -335.188    -223.657
  H      104.301    -334.423    -223.541
  H      103.610    -335.924    -227.571
  H      104.301    -334.330    -227.386
  H      103.170    -334.935    -226.199

 6  7  8  9  10  11  12  13  14  15  16  26  31  32  33  34  35 0
 6-311+G(2d,p)
 ****
 36  37 0
 6-311+G(2d,p)
 ****
 1  2  3  4  5  17  18  19  20  21  22  23  24  25 0
 3-21G
 ****
 27  28  29  30  38  39  40  41  42  43  44  45 0
 3-21G
 ****


