%nproc=1
%NoSave
%Mem=1900MB
#P OB98/GEN NMR

erre ene a

0 1
  C     1088.112    -285.932    -890.840
  O     1088.668    -286.718    -891.890
  P     1090.221    -287.070    -892.000
  C     1090.649    -285.070    -893.560
  O     1091.045    -285.728    -892.370
  C     1091.760    -284.102    -894.030
  O     1092.986    -284.792    -894.320
  C     1091.415    -283.333    -895.340
  O     1090.510    -282.288    -895.080
  C     1092.809    -282.881    -895.740
  O     1093.202    -281.681    -895.060
  C     1093.684    -284.080    -895.320
  N     1094.030    -284.927    -896.450
  C     1095.361    -284.860    -896.940
  O     1096.133    -284.011    -896.460
  N     1095.771    -285.673    -897.960
  C     1094.874    -286.475    -898.500
  N     1095.329    -287.273    -899.500
  C     1093.459    -286.548    -898.070
  C     1093.110    -285.744    -897.070
  O     1090.531    -288.243    -892.870
  O     1090.688    -287.388    -890.480
  H     1093.016    -281.848    -894.100
  H     1091.407    -288.037    -890.500
  H     1092.761    -287.199    -898.600
  H     1092.085    -285.744    -896.670
  H     1094.597    -283.722    -894.850
  H     1092.864    -282.655    -896.820
  H     1091.008    -284.066    -896.050
  H     1091.977    -283.375    -893.220
  H     1096.300    -287.188    -899.780
  H     1089.755    -284.482    -893.350
  H     1094.731    -287.910    -900.000
  H     1090.439    -285.788    -894.320
  P     1088.950    -282.480    -895.520
  C     1089.099    -281.326    -897.820
  O     1088.939    -282.559    -897.100
  O     1087.993    -281.494    -894.910
  O     1088.590    -283.971    -895.060
  H     1087.681    -284.002    -894.830
  H     1089.471    -281.566    -898.830
  H     1089.848    -280.707    -897.310
  H     1088.149    -280.818    -897.910
  H     1087.056    -285.837    -890.986
  H     1088.562    -284.961    -890.845
  H     1088.301    -286.408    -889.900

 3  4  5  6  7  8  9  10  11  12  13  23  27  28  29  30  32 0
 6-311+G(2d,p)
 ****
 34  35 0
 6-311+G(2d,p)
 ****
 1  2  14  15  16  17  18  19  20  21  22  24  25  26 0
 3-21G
 ****
 31  33  36  37  38  39  40  41  42  43  44  45  46 0
 3-21G
 ****


