%nproc=1
%NoSave
%Mem=1900MB
#P OB98/GEN NMR

erre ene a

0 1
  C      -29.813     110.653      57.412
  O      -31.210     110.465      57.182
  P      -31.667     109.023      56.646
  C      -34.105     108.584      57.409
  O      -33.249     109.054      56.378
  C      -34.649     109.734      58.267
  O      -35.180     110.797      57.433
  C      -35.765     109.307      59.221
  O      -35.645     110.101      60.404
  C      -37.024     109.722      58.484
  O      -38.126     109.852      59.377
  C      -36.549     111.028      57.827
  N      -37.376     111.435      56.694
  C      -38.247     112.507      56.896
  O      -38.348     113.024      58.011
  N      -39.015     112.945      55.847
  C      -38.958     112.328      54.708
  N      -39.747     112.807      53.708
  C      -38.098     111.155      54.465
  C      -37.340     110.771      55.491
  O      -31.518     108.085      57.934
  O      -30.840     108.519      55.507
  H      -38.378     108.954      59.684
  H      -31.014     107.281      57.706
  H      -38.098     110.661      53.505
  H      -36.675     109.924      55.410
  H      -36.551     111.849      58.555
  H      -37.278     108.978      57.720
  H      -35.734     108.245      59.483
  H      -33.814     110.154      58.840
  H      -40.318     113.619      53.910
  H      -33.562     107.887      58.050
  H      -39.784     112.405      52.783
  H      -34.921     108.011      56.959
  P      -35.643     109.356      61.823
  C      -33.663     110.667      62.798
  O      -35.056     110.437      62.852
  O      -34.393     108.362      61.662
  O      -36.870     108.620      62.242
  H      -34.324     107.790      62.447
  H      -33.421     111.505      63.457
  H      -33.356     110.919      61.779
  H      -33.123     109.782      63.146
  H      -29.640     111.648      57.765
  H      -29.277     110.501      56.498
  H      -29.475     109.951      58.145

 3  4  5  6  7  8  9  10  11  12  13  21  23  27  28  29  30  32 0
 6-311+G(2d,p)
 ****
 34  35 0
 6-311+G(2d,p)
 ****
 1  2  14  15  16  17  18  19  20  22  24  25  26 0
 3-21G
 ****
 31  33  36  37  38  39  40  41  42  43  44  45  46 0
 3-21G
 ****


