%nproc=1
%NoSave
%Mem=1900MB
#P OB98/GEN NMR

erre ene a

0 1
  C     -212.338    -630.199     -68.382
  O     -211.269    -630.683     -67.559
  P     -211.182    -630.410     -65.979
  C     -210.075    -628.154     -65.398
  O     -211.286    -628.834     -65.701
  C     -210.230    -626.632     -65.492
  O     -211.227    -626.173     -64.525
  C     -208.937    -625.840     -65.229
  O     -208.941    -624.735     -66.140
  C     -209.134    -625.380     -63.792
  O     -208.304    -624.297     -63.416
  C     -210.637    -625.054     -63.828
  N     -211.264    -624.869     -62.524
  C     -211.784    -623.602     -62.226
  O     -211.655    -622.655     -63.002
  N     -212.417    -623.422     -61.019
  C     -212.522    -624.406     -60.185
  N     -213.178    -624.161     -59.013
  C     -211.980    -625.754     -60.450
  C     -211.372    -625.907     -61.624
  O     -209.998    -631.044     -65.324
  O     -212.542    -630.998     -65.365
  H     -212.358    -631.382     -64.487
  H     -208.562    -624.013     -62.520
  H     -212.100    -626.551     -59.732
  H     -210.973    -626.876     -61.907
  H     -210.798    -624.167     -64.445
  H     -208.912    -626.219     -63.124
  H     -208.028    -626.424     -65.389
  H     -210.629    -626.390     -66.485
  H     -213.544    -623.230     -58.871
  H     -209.312    -628.474     -66.116
  H     -213.325    -624.858     -58.299
  H     -209.743    -628.447     -64.395
  P     -207.768    -624.594     -67.219
  C     -205.854    -623.923     -65.578
  O     -206.378    -624.888     -66.464
  O     -207.693    -623.002     -67.426
  O     -207.991    -625.273     -68.531
  H     -207.331    -622.810     -68.307
  H     -205.504    -624.436     -64.679
  H     -206.599    -623.171     -65.289
  H     -205.005    -623.426     -66.052
  H     -212.176    -630.507     -69.394
  H     -212.369    -629.130     -68.335
  H     -213.267    -630.598     -68.032

 3  4  5  6  7  8  9  10  11  12  13  24  27  28  29  30  32 0
 6-311+G(2d,p)
 ****
 34  35 0
 6-311+G(2d,p)
 ****
 1  2  14  15  16  17  18  19  20  21  22  23  25  26 0
 3-21G
 ****
 31  33  36  37  38  39  40  41  42  43  44  45  46 0
 3-21G
 ****


