%nproc=1
%NoSave
%Mem=1900MB
#P OB98/GEN NMR

erre ene a

0 1
  C      250.354    -138.307    -331.137
  O      249.124    -138.969    -330.916
  H      250.325    -137.333    -330.642
  H      250.515    -138.151    -332.210
  H      251.175    -138.895    -330.718
  P      248.940    -140.402    -331.612
  C      247.220    -141.152    -329.842
  O      247.449    -140.854    -331.216
  C      245.722    -141.286    -329.568
  O      245.164    -139.954    -329.393
  C      244.947    -141.968    -330.702
  O      243.896    -142.761    -330.143
  C      244.335    -140.799    -331.458
  O      243.189    -141.177    -332.211
  C      244.066    -139.819    -330.317
  N      241.055    -135.716    -330.432
  C      240.979    -136.875    -329.740
  N      241.840    -137.912    -329.754
  C      242.900    -137.638    -330.539
  C      243.117    -136.502    -331.303
  C      242.124    -135.508    -331.239
  N      242.173    -134.339    -331.960
  N      244.300    -136.615    -332.010
  C      244.791    -137.794    -331.675
  N      243.970    -138.454    -330.802
  O      250.006    -141.402    -331.318
  O      248.779    -140.004    -333.154
  H      242.804    -140.369    -332.613
  H      248.150    -139.262    -333.268
  H      240.100    -136.992    -329.104
  H      245.722    -138.214    -332.047
  H      243.130    -140.045    -329.781
  H      245.077    -140.384    -332.156
  H      245.577    -142.585    -331.342
  H      245.582    -141.816    -328.618
  H      247.642    -140.358    -329.208
  H      241.416    -133.681    -331.850
  H      242.966    -134.160    -332.566
  H      247.738    -142.091    -329.610
  P      243.810    -144.319    -330.520
  C      243.274    -145.115    -328.128
  O      242.829    -145.049    -329.479
  O      245.117    -145.001    -330.749
  O      242.929    -144.301    -331.865
  H      243.312    -144.938    -332.507
  H      242.541    -145.620    -327.535
  H      243.416    -144.124    -327.751
  H      244.199    -145.650    -328.083

 6  7  8  9  10  11  12  13  14  15  25  28  32  33  34  35 0
 6-311+G(2d,p)
 ****
 36  39  40 0
 6-311+G(2d,p)
 ****
 1  2  3  4  5  16  17  18  19  20  21  22  23  24 0
 3-21G
 ****
 26  27  29  30  31  37  38  41  42  43  44  45  46  47 0
 3-21G
 ****
 48 0
 3-21G
 ****


