%nproc=1
%NoSave
%Mem=1900MB
#P OB98/GEN NMR

erre ene a

0 1
  C      -51.511     -11.437     -31.106
  O      -51.874     -10.432     -30.182
  H      -50.640     -11.991     -30.744
  H      -52.349     -12.129     -31.220
  H      -51.288     -10.989     -32.079
  P      -50.733      -9.372     -29.798
  C      -48.531      -9.450     -28.434
  O      -49.701     -10.144     -28.839
  C      -47.883     -10.159     -27.251
  O      -48.796     -10.205     -26.135
  C      -47.493     -11.609     -27.512
  O      -46.280     -11.709     -28.244
  C      -47.332     -12.117     -26.086
  O      -46.044     -11.726     -25.576
  C      -48.444     -11.366     -25.338
  N      -50.367     -15.598     -23.157
  C      -49.113     -15.090     -23.190
  N      -48.674     -13.970     -23.797
  C      -49.684     -13.332     -24.411
  C      -51.010     -13.727     -24.463
  C      -51.343     -14.922     -23.804
  N      -52.620     -15.439     -23.790
  N      -51.763     -12.816     -25.171
  C      -50.908     -11.885     -25.542
  N      -49.636     -12.157     -25.112
  O      -51.479      -8.364     -28.800
  O      -50.120      -8.647     -30.949
  H      -45.382     -12.024     -26.228
  H      -51.134      -7.463     -28.944
  H      -48.361     -15.662     -22.652
  H      -51.164     -11.001     -26.114
  H      -48.094     -10.991     -24.370
  H      -47.399     -13.204     -26.008
  H      -48.305     -12.157     -28.002
  H      -47.008      -9.571     -26.943
  H      -48.796      -8.429     -28.138
  H      -52.835     -16.180     -23.145
  H      -53.348     -14.920     -24.271
  H      -47.836      -9.405     -29.279
  P      -46.212     -12.806     -29.416
  C      -45.607     -15.327     -29.492
  O      -45.587     -14.120     -28.740
  O      -45.024     -12.269     -30.344
  O      -47.475     -12.994     -30.182
  H      -45.142     -12.598     -31.257
  H      -45.160     -16.112     -28.918
  H      -45.057     -15.191     -30.400
  H      -46.619     -15.586     -29.724

 6  7  8  9  10  11  12  13  14  15  25  28  32  33  34  35 0
 6-311+G(2d,p)
 ****
 36  39  40 0
 6-311+G(2d,p)
 ****
 1  2  3  4  5  16  17  18  19  20  21  22  23  24 0
 3-21G
 ****
 26  27  29  30  31  37  38  41  42  43  44  45  46  47  48 0
 3-21G
 ****


