%nproc=1
%NoSave
%Mem=1900MB
#P OB98/GEN NMR

erre ene a

0 1
  C      668.215    1139.537     366.452
  O      669.469    1139.235     367.025
  H      667.439    1139.393     367.211
  H      668.013    1138.864     365.616
  H      668.190    1140.575     366.108
  P      670.763    1139.405     366.085
  C      672.344    1140.527     367.822
  O      671.532    1140.691     366.665
  C      672.986    1141.856     368.211
  O      673.571    1142.466     367.037
  C      672.003    1142.857     368.822
  O      672.609    1143.501     369.941
  C      671.756    1143.855     367.703
  O      671.367    1145.137     368.196
  C      673.078    1143.817     366.931
  N      672.920    1144.223     365.535
  C      673.510    1145.438     365.157
  O      674.126    1146.111     365.987
  N      673.351    1145.877     363.872
  C      672.617    1145.201     363.049
  N      672.480    1145.703     361.794
  C      671.931    1143.947     363.413
  C      672.133    1143.514     364.663
  O      670.145    1139.926     364.705
  O      671.612    1138.179     365.948
  H      671.996    1145.394     368.902
  H      670.795    1139.868     363.974
  H      671.310    1143.427     362.701
  H      671.663    1142.604     365.021
  H      673.820    1144.482     367.408
  H      670.936    1143.487     367.062
  H      671.074    1142.396     369.138
  H      673.824    1141.652     368.901
  H      672.954    1146.575     361.579
  H      673.123    1139.788     367.607
  H      671.902    1145.279     361.078
  H      671.726    1140.166     368.653
  P      672.671    1142.640     371.296
  C      675.135    1141.965     371.727
  O      673.891    1141.595     371.156
  O      671.362    1141.713     371.207
  O      672.690    1143.475     372.530
  H      670.645    1142.089     371.743
  H      675.849    1141.186     371.562
  H      675.013    1142.120     372.779
  H      675.482    1142.869     371.272

 6  7  8  9  10  11  12  13  14  15  16  26  30  31  32  33  35 0
 6-311+G(2d,p)
 ****
 37  38 0
 6-311+G(2d,p)
 ****
 1  2  3  4  5  17  18  19  20  21  22  23  24  25 0
 3-21G
 ****
 27  28  29  34  36  39  40  41  42  43  44  45  46 0
 3-21G
 ****


