%nproc=1
%NoSave
%Mem=1900MB
#P OB98/GEN NMR

erre ene a

0 1
  C      662.204     456.781     -14.206
  O      661.935     455.582     -14.952
  P      660.991     454.490     -14.246
  C      660.111     452.130     -14.890
  O      661.068     453.152     -15.126
  C      659.651     451.498     -16.217
  O      658.851     452.424     -16.976
  C      660.794     451.101     -17.141
  O      661.370     449.862     -16.757
  C      660.057     450.964     -18.468
  O      659.426     449.665     -18.549
  C      658.990     452.070     -18.381
  N      658.985     454.321     -22.922
  C      658.531     453.074     -22.549
  N      657.960     452.334     -23.527
  N      658.615     452.591     -21.336
  C      659.179     453.473     -20.453
  C      659.672     454.728     -20.711
  C      659.602     455.229     -22.059
  O      660.024     456.310     -22.447
  N      660.162     455.306     -19.568
  C      659.934     454.412     -18.616
  N      659.347     453.274     -19.112
  O      659.518     455.043     -14.536
  O      661.249     454.320     -12.786
  H      658.864     449.574     -17.751
  H      658.903     454.735     -13.846
  H      658.912     454.635     -23.879
  H      660.167     454.540     -17.570
  H      658.016     451.725     -18.725
  H      660.731     451.041     -19.339
  H      657.799     452.660     -24.466
  H      661.545     451.898     -17.206
  H      657.587     451.422     -23.264
  H      659.034     450.625     -15.979
  H      659.240     452.544     -14.372
  H      660.542     451.374     -14.229
  P      662.884     449.895     -16.201
  C      664.557     448.013     -15.599
  O      663.438     448.398     -16.361
  O      662.687     450.082     -14.627
  O      663.725     450.977     -16.801
  H      663.462     450.553     -14.251
  H      664.489     448.376     -14.567
  H      665.477     448.402     -16.061
  H      664.612     446.926     -15.571
  H      662.839     457.423     -14.780
  H      662.690     456.528     -13.287
  H      661.284     457.285     -13.996

 3  4  5  6  7  8  9  10  11  12  23  26  30  31  33  0
 6-311+G(2d,p)
 ****
 35  36  37  38 0
 6-311+G(2d,p)
 ****
 1  2  13  14  15  16  17  18  19  20  21  22  24  25  27  28  29 0
 3-21G
 ****
 32  34  39  40  41  42  43  44  45  46  47  48  49 0
 3-21G
 ****


