%nproc=1
%NoSave
%Mem=1900MB
#P OB98/GEN NMR

erre ene a

0 1
  C      604.986    -891.640     545.105
  O      604.421    -892.760     545.766
  H      605.283    -890.910     545.856
  H      604.242    -891.180     544.441
  H      605.863    -891.940     544.531
  P      604.039    -894.060     544.901
  C      606.365    -895.160     545.088
  O      605.391    -894.580     544.223
  C      606.510    -896.640     544.788
  O      606.957    -896.830     543.430
  C      607.554    -897.340     545.663
  O      607.038    -897.590     546.958
  C      607.821    -898.600     544.838
  O      606.793    -899.590     545.059
  C      607.774    -898.050     543.394
  N      609.086    -897.800     542.837
  C      609.602    -898.800     542.031
  O      609.041    -899.870     541.801
  N      610.852    -898.550     541.497
  C      611.627    -897.460     541.780
  O      612.777    -897.320     541.348
  C      611.041    -896.450     542.656
  C      609.811    -896.650     543.138
  O      602.874    -893.900     543.973
  O      603.730    -895.170     546.020
  H      606.988    -900.000     545.924
  H      602.769    -895.310     546.084
  H      611.253    -899.270     540.913
  H      611.631    -895.570     542.888
  H      609.347    -895.930     543.797
  H      607.239    -898.750     542.753
  H      608.767    -899.070     545.098
  H      608.464    -896.760     545.714
  H      605.518    -897.120     544.884
  H      606.034    -895.020     546.124
  H      607.322    -894.620     544.942
  P      607.774    -896.960     548.236
  C      606.668    -894.640     548.093
  O      607.892    -895.370     548.020
  O      609.057    -897.630     548.638
  O      606.695    -897.070     549.410
  H      607.039    -897.630     550.136
  H      606.863    -893.600     547.936
  H      606.227    -894.778     549.058
  H      605.996    -894.995     547.340

 6  7  8  9  10  11  12  13  14  15  16  26  31  32  33  34  35 0
 6-311+G(2d,p)
 ****
 36  37 0
 6-311+G(2d,p)
 ****
 1  2  3  4  5  17  18  19  20  21  22  23  24  25 0
 3-21G
 ****
 27  28  29  30  38  39  40  41  42  43  44  45 0
 3-21G
 ****


