%nproc=1
%NoSave
%Mem=1900MB
#P OB98/GEN NMR

erre ene a

0 1
  C      -16.772     305.494    -117.144
  O      -17.062     304.887    -115.887
  P      -16.115     305.221    -114.636
  C      -15.596     304.129    -112.283
  O      -16.269     304.087    -113.523
  C      -16.285     303.164    -111.298
  O      -17.426     303.807    -110.688
  C      -16.789     301.887    -111.965
  O      -15.786     300.893    -112.033
  C      -17.956     301.511    -111.069
  O      -17.482     300.898    -109.861
  C      -18.568     302.902    -110.766
  N      -19.541     303.460    -111.730
  C      -20.828     302.930    -111.795
  O      -21.231     302.005    -111.099
  N      -21.674     303.518    -112.703
  C      -21.437     304.657    -113.411
  O      -22.249     305.175    -114.163
  C      -20.114     305.262    -113.193
  C      -19.242     304.645    -112.389
  O      -16.792     306.507    -113.979
  O      -14.678     305.463    -115.000
  H      -17.142     300.014    -110.098
  H      -16.196     307.276    -114.042
  H      -22.586     303.099    -112.815
  H      -19.899     306.195    -113.699
  H      -18.264     305.087    -112.221
  H      -19.053     302.906    -109.790
  H      -18.602     300.778    -111.552
  H      -17.187     302.111    -112.962
  H      -15.568     302.914    -110.509
  H      -15.599     305.143    -111.874
  H      -14.548     303.848    -112.426
  P      -14.959     300.686    -113.392
  C      -12.664     299.665    -113.901
  O      -13.763     299.673    -113.017
  O      -14.553     301.930    -114.107
  O      -15.922     299.769    -114.286
  H      -16.453     300.318    -114.907
  H      -11.862     299.060    -113.456
  H      -12.288     300.682    -114.066
  H      -12.953     299.221    -114.856
  H      -17.490     305.172    -117.869
  H      -15.791     305.207    -117.461
  H      -16.817     306.558    -117.045

 3  4  5  6  7  8  9  10  11  12  13  23  28  29  30  31  32 0
 6-311+G(2d,p)
 ****
 33  34 0
 6-311+G(2d,p)
 ****
 1  2  14  15  16  17  18  19  20  21  22  24  25  26  27 0
 3-21G
 ****
 35  36  37  38  39  40  41  42  43  44  45 0
 3-21G
 ****


