%nproc=1
%NoSave
%Mem=1900MB
#P OB98/GEN NMR

erre ene a

0 1
  C     -315.171       2.045       9.981
  O     -315.977       2.846      10.826
  H     -314.358       1.614      10.571
  H     -314.741       2.663       9.185
  H     -315.761       1.233       9.545
  P     -317.353       3.377      10.205
  C     -318.011       4.920       8.185
  O     -316.979       4.391       9.010
  C     -317.401       5.639       6.983
  O     -316.605       4.733       6.193
  C     -318.422       6.179       5.992
  O     -319.107       7.311       6.478
  C     -317.527       6.478       4.796
  O     -316.904       7.762       4.909
  C     -316.471       5.347       4.887
  N     -316.618       4.386       3.807
  C     -316.002       4.743       2.600
  O     -315.372       5.800       2.516
  N     -316.148       3.914       1.516
  C     -316.869       2.840       1.618
  N     -317.000       2.076       0.497
  C     -317.535       2.426       2.871
  C     -317.372       3.239       3.919
  O     -317.897       4.350      11.350
  O     -318.315       2.307       9.802
  H     -316.557       7.978       4.018
  H     -317.234       4.983      11.676
  H     -318.116       1.513       2.908
  H     -317.827       3.014       4.877
  H     -315.457       5.762       4.840
  H     -318.093       6.476       3.859
  H     -319.126       5.382       5.703
  H     -316.749       6.441       7.358
  H     -316.572       2.425      -0.353
  H     -318.643       5.610       8.757
  H     -317.599       1.267       0.437
  H     -318.636       4.086       7.855
  P     -320.528       7.751       5.878
  C     -321.188       9.596       4.199
  O     -320.222       8.608       4.551
  O     -321.450       8.417       6.840
  O     -321.098       6.383       5.267
  H     -320.542       5.980       4.574
  H     -320.877      10.097       3.306
  H     -321.277      10.307       4.994
  H     -322.135       9.126       4.033

 6  7  8  9  10  11  12  13  14  15  16  26  30  31  32  33  35 0
 6-311+G(2d,p)
 ****
 37  38 0
 6-311+G(2d,p)
 ****
 1  2  3  4  5  17  18  19  20  21  22  23  24  25 0
 3-21G
 ****
 27  28  29  34  36  39  40  41  42  43  44  45  46 0
 3-21G
 ****


