%nproc=1
%NoSave
%Mem=1900MB
#P OB98/GEN NMR

erre ene a

0 1
  C     -463.457     -46.645     263.673
  O     -462.393     -46.329     262.798
  P     -462.154     -47.166     261.457
  C     -460.678     -49.021     262.582
  O     -461.837     -48.676     261.856
  C     -460.782     -50.490     263.021
  O     -461.992     -50.696     263.774
  C     -460.807     -51.433     261.820
  O     -459.500     -51.915     261.536
  C     -461.766     -52.521     262.270
  O     -461.088     -53.472     263.115
  C     -462.791     -51.707     263.095
  N     -463.877     -51.020     262.373
  C     -465.011     -51.737     261.990
  O     -465.185     -52.926     262.243
  N     -465.941     -51.032     261.265
  C     -465.871     -49.705     260.944
  O     -466.576     -49.160     260.106
  C     -464.796     -48.954     261.609
  C     -463.853     -49.638     262.256
  O     -460.748     -46.618     260.931
  O     -463.228     -47.040     260.426
  H     -460.148     -53.464     262.854
  H     -460.879     -45.949     260.232
  H     -466.698     -51.582     260.865
  H     -464.779     -47.880     261.492
  H     -463.027     -49.103     262.720
  H     -463.258     -52.332     263.868
  H     -462.147     -53.086     261.423
  H     -461.236     -50.926     260.947
  H     -459.931     -50.729     263.674
  H     -460.569     -48.371     263.454
  H     -459.789     -48.876     261.958
  P     -458.999     -51.978     260.018
  C     -459.741     -54.398     259.596
  O     -459.970     -53.034     259.299
  O     -457.532     -52.226     259.834
  O     -459.442     -50.559     259.420
  H     -458.684     -49.940     259.434
  H     -460.562     -54.983     259.190
  H     -459.684     -54.548     260.675
  H     -458.807     -54.724     259.123
  H     -463.445     -45.973     264.506
  H     -463.344     -47.650     264.024
  H     -464.387     -46.551     263.152

 3  4  5  6  7  8  9  10  11  12  13  23  28  29  30  31  32 0
 6-311+G(2d,p)
 ****
 33  34 0
 6-311+G(2d,p)
 ****
 1  2  14  15  16  17  18  19  20  21  22  24  25  26  27 0
 3-21G
 ****
 35  36  37  38  39  40  41  42  43  44  45 0
 3-21G
 ****


