%nproc=1
%NoSave
%Mem=1900MB
#P OB98/GEN NMR

erre ene a

0 1
  C     -369.799     618.444      66.998
  O     -369.020     618.407      68.181
  P     -367.435     618.158      68.124
  C     -367.042     620.713      68.272
  O     -366.790     619.434      68.857
  C     -365.974     621.701      68.744
  O     -366.068     621.881      70.174
  C     -364.536     621.267      68.481
  O     -364.190     621.438      67.118
  C     -363.780     622.139      69.467
  O     -363.617     623.473      68.932
  C     -364.745     622.182      70.669
  N     -364.356     621.252      71.728
  C     -363.226     621.584      72.473
  O     -362.589     622.613      72.229
  N     -362.834     620.757      73.489
  C     -363.507     619.673      73.741
  N     -363.122     618.923      74.812
  C     -364.682     619.255      72.960
  C     -365.060     620.078      71.972
  O     -366.891     617.887      66.757
  O     -367.167     616.987      69.168
  H     -362.840     623.458      68.337
  H     -367.245     616.078      68.776
  H     -365.195     618.334      73.196
  H     -365.904     619.858      71.357
  H     -364.796     623.191      71.081
  H     -362.776     621.772      69.709
  H     -364.401     620.205      68.745
  H     -366.173     622.672      68.259
  H     -362.430     619.341      75.427
  H     -368.024     621.063      68.600
  H     -363.738     618.250      75.230
  H     -367.038     620.622      67.188
  P     -362.909     620.647      66.561
  C     -363.973     618.292      66.508
  O     -363.477     619.380      65.751
  O     -362.260     620.023      67.888
  O     -361.938     621.500      65.809
  H     -361.496     620.557      68.181
  H     -364.528     617.633      65.835
  H     -364.659     618.635      67.294
  H     -363.154     617.730      66.945
  H     -370.824     618.620      67.251
  H     -369.714     617.509      66.486
  H     -369.448     619.231      66.364

 3  4  5  6  7  8  9  10  11  12  13  23  27  28  29  30  32 0
 6-311+G(2d,p)
 ****
 34  35 0
 6-311+G(2d,p)
 ****
 1  2  14  15  16  17  18  19  20  21  22  24  25  26 0
 3-21G
 ****
 31  33  36  37  38  39  40  41  42  43  44  45  46 0
 3-21G
 ****


