%nproc=1
%NoSave
%Mem=1900MB
#P OB98/GEN NMR

erre ene a

0 1
  C      247.275     -20.452      58.763
  O      246.311     -20.497      57.699
  P      245.939     -19.138      56.922
  C      247.339     -19.774      54.805
  O      246.082     -19.393      55.345
  C      247.300     -19.701      53.276
  O      248.641     -19.645      52.737
  C      246.654     -20.904      52.607
  O      245.240     -20.866      52.697
  C      247.174     -20.773      51.181
  O      246.381     -19.839      50.428
  C      248.594     -20.218      51.411
  N      249.631     -21.232      51.232
  C      249.573     -21.973      50.058
  O      248.676     -21.849      49.225
  N      250.568     -22.898      49.886
  C      251.553     -23.191      50.785
  O      252.407     -24.046      50.582
  C      251.514     -22.432      52.041
  C      250.567     -21.506      52.207
  O      247.220     -18.220      57.226
  O      244.686     -18.460      57.365
  H      246.844     -19.701      49.578
  H      246.959     -17.281      57.209
  H      250.561     -23.427      49.029
  H      252.264     -22.651      52.790
  H      250.525     -20.935      53.131
  H      248.792     -19.390      50.720
  H      247.153     -21.723      50.638
  H      247.044     -21.831      53.046
  H      246.780     -18.777      52.991
  H      247.567     -20.800      55.109
  H      248.113     -19.110      55.202
  P      244.501     -22.248      53.050
  C      244.129     -22.090      55.633
  O      243.599     -21.926      54.335
  O      245.728     -23.114      53.608
  O      243.794     -22.848      51.882
  H      246.380     -22.566      54.074
  H      245.198     -21.866      55.662
  H      243.964     -23.118      55.964
  H      243.607     -21.410      56.314
  H      247.404     -21.434      59.169
  H      246.929     -19.792      59.530
  H      248.210     -20.097      58.382

 3  4  5  6  7  8  9  10  11  12  13  23  28  29  30  31  32 0
 6-311+G(2d,p)
 ****
 33  34 0
 6-311+G(2d,p)
 ****
 1  2  14  15  16  17  18  19  20  21  22  24  25  26 0
 3-21G
 ****
 27  35  36  37  38  39  40  41  42  43  44  45 0
 3-21G
 ****


