%nproc=1
%NoSave
%Mem=1900MB
#P OB98/GEN NMR

erre ene a

0 1
  C     -212.423     238.880    -124.418
  O     -213.784     239.258    -124.338
  H     -212.368     237.792    -124.506
  H     -211.898     239.188    -123.511
  H     -211.953     239.331    -125.297
  P     -214.098     240.834    -124.391
  C     -216.632     241.082    -125.026
  O     -215.649     240.973    -124.012
  C     -217.066     239.696    -125.503
  O     -217.442     238.905    -124.349
  C     -218.256     239.718    -126.462
  O     -218.068     238.696    -127.444
  C     -219.437     239.371    -125.573
  O     -220.521     238.819    -126.318
  C     -218.787     238.426    -124.553
  N     -219.528     238.372    -123.294
  C     -220.567     237.438    -123.216
  O     -220.833     236.727    -124.184
  N     -221.306     237.363    -122.062
  C     -221.076     238.197    -121.096
  N     -221.857     238.085    -119.987
  C     -220.026     239.233    -121.155
  C     -219.292     239.256    -122.267
  O     -214.061     241.119    -125.965
  O     -213.161     241.671    -123.587
  H     -220.178     238.051    -126.827
  H     -214.491     240.428    -126.496
  H     -219.884     239.915    -120.329
  H     -218.496     239.980    -122.390
  H     -218.721     237.408    -124.958
  H     -219.803     240.276    -125.070
  H     -218.397     240.678    -126.958
  H     -216.200     239.200    -125.956
  H     -222.577     237.375    -119.993
  H     -216.240     241.653    -125.874
  H     -221.801     238.712    -119.199
  H     -217.486     241.627    -124.614
  P     -217.564     239.100    -128.909
  C     -216.301     236.926    -129.481
  O     -217.402     237.768    -129.790
  O     -216.406     240.038    -128.962
  O     -218.870     239.779    -129.558
  H     -218.573     240.538    -130.098
  H     -216.305     236.079    -130.135
  H     -216.379     236.594    -128.467
  H     -215.389     237.470    -129.609

 6  7  8  9  10  11  12  13  14  15  16  26  30  31  32  33  35 0
 6-311+G(2d,p)
 ****
 37  38 0
 6-311+G(2d,p)
 ****
 1  2  3  4  5  17  18  19  20  21  22  23  24  25 0
 3-21G
 ****
 27  28  29  34  36  39  40  41  42  43  44  45  46 0
 3-21G
 ****


