%nproc=1
%NoSave
%Mem=1900MB
#P OB98/GEN NMR

erre ene a

0 1
  C      168.046    -124.970      -1.653
  O      167.954    -123.553      -1.616
  P      168.698    -122.789      -0.415
  C      167.026    -122.243       1.498
  O      167.903    -123.203       0.917
  C      165.634    -122.347       0.883
  O      165.247    -123.730       0.762
  C      164.535    -121.681       1.696
  O      164.471    -120.282       1.467
  C      163.302    -122.367       1.124
  O      162.950    -121.769      -0.137
  C      163.803    -123.798       0.909
  N      160.689    -127.549       2.449
  C      160.719    -126.813       1.319
  N      161.574    -125.823       0.988
  C      162.445    -125.594       1.984
  C      162.510    -126.239       3.209
  C      161.584    -127.271       3.427
  N      161.574    -128.040       4.568
  N      163.534    -125.726       3.973
  C      164.088    -124.796       3.223
  N      163.470    -124.684       2.007
  O      168.274    -121.263      -0.641
  O      170.178    -122.961      -0.379
  H      162.785    -120.821       0.035
  H      168.926    -120.670      -0.223
  H      159.963    -127.056       0.577
  H      164.934    -124.189       3.513
  H      163.405    -124.247      -0.008
  H      162.426    -122.278       1.775
  H      164.625    -121.920       2.761
  H      165.680    -121.920      -0.128
  H      167.423    -121.240       1.314
  H      161.005    -128.873       4.570
  H      162.362    -127.965       5.201
  H      166.982    -122.410       2.577
  P      164.063    -119.363       2.720
  C      161.806    -118.097       2.483
  O      162.462    -119.329       2.715
  O      164.485    -117.896       2.244
  O      164.717    -119.755       4.002
  H      164.666    -117.327       3.016
  H      160.768    -118.299       2.208
  H      162.283    -117.544       1.669
  H      161.818    -117.493       3.393
  H      167.507    -125.340      -2.500
  H      167.627    -125.378      -0.757
  H      169.073    -125.259      -1.730

 3  4  5  6  7  8  9  10  11  12  22  25  29  30  31  32 0
 6-311+G(2d,p)
 ****
 33  36  37 0
 6-311+G(2d,p)
 ****
 1  2  13  14  15  16  17  18  19  20  21  23  24  26 0
 3-21G
 ****
 27  28  34  35  38  39  40  41  42  43  44  45  46  47  48 0
 3-21G
 ****


