%nproc=1
%NoSave
%Mem=1900MB
#P OB98/GEN NMR

erre ene a

0 1
  C     -111.719      11.547      49.871
  O     -112.119      12.172      51.075
  H     -112.079      12.146      49.030
  H     -112.144      10.543      49.791
  H     -110.628      11.494      49.819
  P     -111.935      11.356      52.446
  C     -111.772      12.030      54.935
  O     -111.690      12.469      53.579
  C     -111.318      13.133      55.896
  O     -109.886      13.289      55.831
  C     -111.884      14.505      55.565
  O     -113.273      14.626      55.791
  C     -110.920      15.437      56.284
  O     -111.257      15.658      57.650
  C     -109.588      14.654      56.194
  N     -108.651      15.271      55.264
  C     -108.377      16.617      55.487
  O     -108.893      17.276      56.390
  N     -107.511      17.202      54.605
  C     -106.948      16.600      53.518
  O     -106.211      17.192      52.738
  C     -107.297      15.182      53.317
  C     -108.121      14.592      54.187
  O     -110.897      10.274      52.426
  O     -113.408      10.827      52.774
  H     -110.500      16.119      58.061
  H     -113.386      10.098      53.438
  H     -107.291      18.174      54.756
  H     -106.870      14.673      52.465
  H     -108.394      13.547      54.061
  H     -109.107      14.612      57.179
  H     -110.879      16.418      55.804
  H     -111.738      14.683      54.492
  H     -111.582      12.831      56.916
  H     -111.111      11.163      55.044
  H     -112.798      11.725      55.161
  P     -114.228      15.552      54.906
  C     -116.803      15.721      54.592
  O     -115.688      14.880      54.872
  O     -113.656      16.086      53.631
  O     -114.456      16.809      55.893
  H     -114.530      17.608      55.337
  H     -117.701      15.139      54.603
  H     -116.679      16.168      53.628
  H     -116.867      16.488      55.335

 6  7  8  9  10  11  12  13  14  15  16  26  31  32  33  34  35 0
 6-311+G(2d,p)
 ****
 36  37 0
 6-311+G(2d,p)
 ****
 1  2  3  4  5  17  18  19  20  21  22  23  24  25 0
 3-21G
 ****
 27  28  29  30  38  39  40  41  42  43  44  45 0
 3-21G
 ****


