%nproc=1
%NoSave
%Mem=1900MB
#P OB98/GEN NMR

erre ene a

0 1
  C     -134.345     167.271     189.355
  O     -135.203     166.610     188.415
  P     -136.396     165.627     188.845
  C     -138.461     167.126     189.278
  O     -137.780     166.279     188.359
  C     -139.965     167.145     188.989
  O     -140.685     167.700     190.115
  C     -140.389     168.009     187.812
  O     -140.056     167.429     186.565
  C     -141.889     168.141     188.065
  O     -142.607     167.016     187.539
  C     -141.965     168.139     189.604
  N     -142.332     169.435     190.154
  C     -143.615     169.901     189.858
  O     -144.349     169.269     189.098
  N     -144.029     171.085     190.420
  C     -143.199     171.789     191.123
  N     -143.671     172.944     191.670
  C     -141.795     171.399     191.344
  C     -141.433     170.221     190.840
  O     -136.383     165.255     190.290
  O     -136.234     164.333     187.915
  H     -136.617     163.558     188.366
  H     -143.537     167.118     187.816
  H     -141.124     172.036     191.902
  H     -140.421     169.850     190.968
  H     -142.685     167.387     189.946
  H     -142.309     169.038     187.598
  H     -139.918     168.998     187.901
  H     -140.295     166.108     188.840
  H     -144.641     173.177     191.506
  H     -138.067     168.143     189.170
  H     -143.114     173.552     192.252
  H     -138.263     166.784     190.299
  P     -139.384     168.391     185.472
  C     -136.835     167.944     185.655
  O     -138.039     167.686     184.961
  O     -138.864     169.636     186.334
  O     -140.310     168.835     184.387
  H     -139.006     170.463     185.836
  H     -136.170     167.086     185.532
  H     -137.010     168.110     186.722
  H     -136.355     168.827     185.226
  H     -133.631     167.869     188.827
  H     -133.832     166.540     189.944
  H     -134.932     167.897     189.994

 3  4  5  6  7  8  9  10  11  12  13  24  27  28  29  30  32 0
 6-311+G(2d,p)
 ****
 34  35 0
 6-311+G(2d,p)
 ****
 1  2  14  15  16  17  18  19  20  21  22  23  25  26 0
 3-21G
 ****
 31  33  36  37  38  39  40  41  42  43  44  45  46 0
 3-21G
 ****


