%nproc=1
%NoSave
%Mem=1900MB
#P OB98/GEN NMR

erre ene a

0 1
  C      214.841    -471.446    -182.039
  O      213.661    -470.782    -182.484
  P      213.103    -471.162    -183.942
  C      212.578    -468.840    -185.004
  O      212.068    -470.028    -184.407
  C      211.431    -467.864    -185.292
  O      210.251    -468.560    -185.736
  C      210.994    -467.070    -184.070
  O      211.902    -466.018    -183.801
  C      209.602    -466.600    -184.480
  O      209.641    -465.334    -185.147
  C      209.124    -467.716    -185.438
  N      208.017    -468.486    -184.896
  C      206.765    -467.851    -184.918
  O      206.656    -466.708    -185.349
  N      205.676    -468.534    -184.419
  C      205.831    -469.720    -183.928
  N      204.717    -470.346    -183.448
  C      207.139    -470.416    -183.862
  C      208.171    -469.741    -184.353
  O      212.161    -472.427    -183.653
  O      214.175    -471.488    -184.936
  H      209.978    -465.518    -186.054
  H      212.178    -473.044    -184.412
  H      207.218    -471.403    -183.437
  H      209.168    -470.171    -184.352
  H      208.797    -467.279    -186.393
  H      208.955    -466.475    -183.607
  H      210.918    -467.741    -183.196
  H      211.754    -467.177    -186.089
  H      203.844    -469.842    -183.506
  H      213.105    -469.077    -185.928
  H      204.728    -471.271    -183.034
  H      213.310    -468.391    -184.325
  P      213.210    -466.357    -182.951
  C      213.696    -464.144    -181.735
  O      214.013    -464.968    -182.850
  O      214.102    -467.174    -184.006
  O      213.022    -467.111    -181.675
  H      214.901    -467.527    -183.570
  H      214.451    -463.344    -181.683
  H      213.725    -464.719    -180.813
  H      212.714    -463.683    -181.881
  H      215.098    -471.099    -181.060
  H      215.645    -471.236    -182.714
  H      214.667    -472.501    -182.010

 3  4  5  6  7  8  9  10  11  12  13  21  23  27  28  29  30  32 0
 6-311+G(2d,p)
 ****
 34  35 0
 6-311+G(2d,p)
 ****
 1  2  14  15  16  17  18  19  20  22  24  25  26 0
 3-21G
 ****
 31  33  36  37  38  39  40  41  42  43  44  45  46 0
 3-21G
 ****


