%nproc=1
%NoSave
%Mem=1900MB
#P OB98/GEN NMR

erre ene a

0 1
  C      227.746     -20.296    -276.106
  O      228.583     -20.193    -274.972
  H      227.449     -21.340    -276.229
  H      228.276     -19.969    -277.002
  H      226.848     -19.691    -275.964
  P      229.173     -18.735    -274.646
  C      231.485     -19.828    -274.971
  O      230.668     -19.019    -274.131
  C      232.538     -20.565    -274.139
  O      233.651     -19.665    -273.896
  C      232.020     -21.041    -272.775
  O      232.628     -22.292    -272.456
  C      232.536     -19.973    -271.822
  O      232.634     -20.447    -270.483
  C      233.868     -19.612    -272.476
  N      237.250     -17.134    -269.581
  C      237.137     -18.429    -269.928
  N      236.212     -19.007    -270.727
  C      235.377     -18.077    -271.230
  C      235.368     -16.717    -270.968
  C      236.355     -16.245    -270.087
  N      236.460     -14.930    -269.702
  N      234.322     -16.110    -271.639
  C      233.720     -17.077    -272.301
  N      234.316     -18.292    -272.068
  O      228.340     -17.890    -273.744
  O      229.418     -18.144    -276.113
  H      232.874     -19.693    -269.902
  H      229.867     -18.792    -276.691
  H      237.884     -19.099    -269.495
  H      232.859     -16.963    -272.946
  H      234.675     -20.320    -272.218
  H      231.859     -19.117    -271.825
  H      230.936     -21.135    -272.738
  H      232.931     -21.405    -274.730
  H      231.984     -19.204    -275.723
  H      237.197     -14.674    -269.063
  H      235.808     -14.250    -270.070
  H      230.835     -20.541    -275.485
  P      231.737     -23.619    -272.469
  C      231.107     -23.418    -269.977
  O      231.692     -24.235    -270.991
  O      232.059     -24.605    -273.548
  O      230.248     -23.047    -272.649
  H      229.757     -23.605    -273.284
  H      231.136     -23.936    -269.041
  H      230.091     -23.203    -270.235
  H      231.656     -22.503    -269.895

 6  7  8  9  10  11  12  13  14  15  25  28  32  33  34  35 0
 6-311+G(2d,p)
 ****
 36  39  40 0
 6-311+G(2d,p)
 ****
 1  2  3  4  5  16  17  18  19  20  21  22  23  24 0
 3-21G
 ****
 26  27  29  30  31  37  38  41  42  43  44  45  46  47 0
 3-21G
 ****
 48 0
 3-21G
 ****


