%nproc=1
%NoSave
%Mem=1900MB
#P OB98/GEN NMR

erre ene a

0 1
  C     -890.880     334.895    1042.814
  O     -891.240     333.963    1041.786
  P     -892.350     334.266    1040.671
  C     -894.500     334.218    1042.115
  O     -893.720     333.559    1041.134
  C     -895.870     333.530    1042.272
  O     -896.650     333.632    1041.063
  C     -895.800     332.027    1042.545
  O     -895.390     331.732    1043.869
  C     -897.250     331.615    1042.238
  O     -898.110     331.818    1043.387
  C     -897.640     332.601    1041.114
  N     -897.780     331.934    1039.820
  C     -899.050     331.871    1039.290
  O     -900.000     332.276    1039.920
  N     -899.210     331.324    1038.024
  C     -898.200     330.797    1037.412
  N     -898.400     330.291    1036.156
  C     -896.850     330.716    1038.018
  C     -896.720     331.315    1039.205
  O     -891.930     333.930    1039.265
  O     -892.670     335.841    1040.813
  H     -892.990     336.185    1039.951
  H     -898.180     330.959    1043.841
  H     -896.020     330.228    1037.484
  H     -895.740     331.302    1039.711
  H     -898.580     333.092    1041.352
  H     -897.330     330.543    1041.969
  H     -895.130     331.551    1041.823
  H     -896.430     334.047    1043.090
  H     -899.350     330.365    1035.784
  H     -894.670     335.258    1041.785
  H     -897.690     329.886    1035.606
  H     -893.960     334.243    1043.058
  P     -893.840     331.322    1044.057
  C     -894.260     328.782    1043.679
  O     -893.800     329.793    1044.563
  O     -893.370     332.164    1045.345
  O     -892.970     331.626    1042.869
  H     -892.450     332.487    1045.223
  H     -893.720     327.848    1043.935
  H     -894.040     329.023    1042.632
  H     -895.320     328.644    1043.825
  H     -890.120     334.466    1043.434
  H     -891.741     335.120    1043.409
  H     -890.510     335.794    1042.367

 3  4  5  6  7  8  9  10  11  12  13  24  27  28  29  30  32 0
 6-311+G(2d,p)
 ****
 34  35 0
 6-311+G(2d,p)
 ****
 1  2  14  15  16  17  18  19  20  21  22  23  25  26 0
 3-21G
 ****
 31  33  36  37  38  39  40  41  42  43  44  45  46 0
 3-21G
 ****


