%nproc=1
%NoSave
%Mem=1900MB
#P OB98/GEN NMR

erre ene a

0 1
  C      -18.336     301.443    -242.890
  O      -18.898     300.773    -244.001
  H      -17.941     302.405    -243.224
  H      -17.517     300.854    -242.472
  H      -19.094     301.624    -242.122
  P      -19.730     299.427    -243.753
  C      -21.398     300.199    -245.562
  O      -20.566     299.146    -245.091
  C      -21.876     299.891    -246.978
  O      -20.776     299.985    -247.907
  C      -22.441     298.485    -247.150
  O      -23.745     298.392    -246.604
  C      -22.370     298.335    -248.664
  O      -23.473     298.998    -249.298
  C      -21.036     299.052    -248.982
  N      -19.914     298.132    -249.157
  C      -19.881     297.414    -250.348
  O      -20.758     297.502    -251.208
  N      -18.811     296.576    -250.510
  C      -17.839     296.326    -249.586
  O      -16.930     295.523    -249.761
  C      -17.944     297.086    -248.332
  C      -18.958     297.941    -248.178
  O      -20.529     299.380    -242.492
  O      -18.610     298.282    -243.782
  H      -23.315     298.945    -250.260
  H      -18.382     298.023    -242.872
  H      -18.778     296.036    -251.364
  H      -17.194     296.911    -247.571
  H      -19.053     298.505    -247.257
  H      -21.135     299.649    -249.896
  H      -22.405     297.293    -248.985
  H      -21.772     297.749    -246.693
  H      -22.621     300.646    -247.260
  H      -20.821     301.129    -245.567
  H      -22.249     300.311    -244.881
  P      -24.155     297.160    -245.671
  C      -26.361     298.212    -244.913
  O      -25.759     297.122    -245.596
  O      -23.469     297.106    -244.345
  O      -23.804     295.874    -246.554
  H      -22.997     295.444    -246.207
  H      -27.424     298.093    -244.919
  H      -26.102     299.127    -245.403
  H      -26.010     298.237    -243.902

 6  7  8  9  10  11  12  13  14  15  16  26  31  32  33  34  35 0
 6-311+G(2d,p)
 ****
 36  37 0
 6-311+G(2d,p)
 ****
 1  2  3  4  5  17  18  19  20  21  22  23  24  25 0
 3-21G
 ****
 27  28  29  30  38  39  40  41  42  43  44  45 0
 3-21G
 ****


