%nproc=1
%NoSave
%Mem=1900MB
#P OB98/GEN NMR

erre ene a

0 1
  C     -676.589     364.325    -731.639
  O     -675.831     364.636    -732.799
  P     -676.558     364.906    -734.217
  C     -676.710     362.967    -735.948
  O     -677.103     363.453    -734.655
  C     -675.275     362.492    -735.918
  O     -675.068     361.657    -734.739
  C     -674.867     361.641    -737.105
  O     -674.643     362.432    -738.251
  C     -673.637     360.925    -736.546
  O     -672.478     361.796    -736.590
  C     -674.057     360.685    -735.076
  N     -674.521     359.316    -734.849
  C     -674.153     358.718    -733.632
  O     -673.461     359.329    -732.812
  N     -674.600     357.453    -733.355
  C     -675.323     356.829    -734.224
  N     -675.799     355.596    -733.889
  C     -675.689     357.403    -735.543
  C     -675.273     358.640    -735.773
  O     -675.707     365.590    -735.236
  O     -677.903     365.684    -733.836
  H     -672.207     361.857    -737.537
  H     -677.780     366.664    -733.817
  H     -676.307     356.840    -736.246
  H     -675.523     359.146    -736.705
  H     -673.186     360.887    -734.414
  H     -673.371     359.999    -737.084
  H     -675.641     360.897    -737.338
  H     -674.613     363.375    -735.813
  H     -675.676     355.327    -732.914
  H     -676.799     363.791    -736.658
  H     -676.591     355.181    -734.371
  H     -677.408     362.165    -736.244
  P     -674.526     361.701    -739.676
  C     -672.064     361.553    -740.484
  O     -673.087     360.976    -739.705
  O     -674.386     362.914    -740.718
  O     -675.701     360.810    -739.985
  H     -675.228     363.083    -741.161
  H     -671.106     361.099    -740.207
  H     -672.004     362.634    -740.329
  H     -672.263     361.315    -741.552
  H     -675.929     364.183    -730.809
  H     -677.148     363.428    -731.808
  H     -677.261     365.130    -731.426

 3  4  5  6  7  8  9  10  11  12  13  23  27  28  29  30  32 0
 6-311+G(2d,p)
 ****
 34  35 0
 6-311+G(2d,p)
 ****
 1  2  14  15  16  17  18  19  20  21  22  24  25  26 0
 3-21G
 ****
 31  33  36  37  38  39  40  41  42  43  44  45  46 0
 3-21G
 ****


