%nproc=1
%NoSave
%Mem=1900MB
#P OB98/GEN NMR

erre ene a

0 1
  C     -167.316     -11.184      57.479
  O     -167.083     -10.061      56.658
  H     -166.360     -11.524      57.884
  H     -167.753     -11.991      56.883
  H     -167.983     -10.941      58.310
  P     -168.313      -9.104      56.297
  C     -168.773     -10.396      54.112
  O     -168.503      -9.131      54.702
  C     -167.984     -10.601      52.817
  O     -168.380      -9.622      51.832
  C     -166.481     -10.415      53.017
  O     -165.786     -11.553      53.494
  C     -166.023     -10.044      51.609
  O     -165.777     -11.222      50.824
  C     -167.221      -9.269      51.057
  N     -168.111      -4.756      48.836
  C     -168.463      -6.020      48.406
  N     -169.078      -6.093      47.205
  N     -168.215      -7.107      49.087
  C     -167.509      -6.888      50.222
  C     -167.093      -5.684      50.743
  C     -167.421      -4.479      50.008
  O     -167.126      -3.337      50.341
  N     -166.403      -5.856      51.919
  C     -166.339      -7.163      52.068
  N     -167.019      -7.832      51.078
  O     -167.730      -7.630      56.549
  O     -169.560      -9.333      57.095
  H     -166.614     -11.712      50.736
  H     -168.456      -7.019      56.764
  H     -168.352      -3.951      48.284
  H     -165.839      -7.674      52.885
  H     -167.434      -9.549      50.017
  H     -165.089      -9.474      51.625
  H     -169.185      -5.298      46.595
  H     -166.286      -9.563      53.677
  H     -169.111      -7.002      46.740
  H     -168.218     -11.590      52.405
  H     -169.844     -10.424      53.904
  H     -168.559     -11.200      54.821
  P     -164.298     -11.405      54.062
  C     -163.280     -12.985      52.264
  O     -163.499     -12.726      53.633
  O     -164.503     -11.579      55.640
  O     -163.623     -10.119      53.729
  H     -164.562     -10.705      56.071
  H     -162.736     -13.900      52.157
  H     -162.717     -12.183      51.835
  H     -164.221     -13.069      51.762

 6  7  8  9  10  11  12  13  14  15  26  29  33  34 0
 6-311+G(2d,p)
 ****
 36  38  39  40  41 0
 6-311+G(2d,p)
 ****
 1  2  3  4  5  16  17  18  19  20  21  22  23  24  25 0
 3-21G
 ****
 27  28  30  31  32  35  37  42  43  44  45  46  47 0
 3-21G
 ****
 48  49 0
 3-21G
 ****


