%nproc=1
%NoSave
%Mem=1900MB
#P OB98/GEN NMR

erre ene a

0 1
  C      330.010    -173.583     523.320
  O      330.201    -172.252     523.756
  H      329.853    -174.221     524.193
  H      330.893    -173.935     522.777
  H      329.130    -173.644     522.673
  P      330.554    -171.173     522.620
  C      332.981    -170.833     523.513
  O      332.149    -171.299     522.462
  C      334.444    -170.951     523.102
  O      335.305    -170.338     524.083
  C      334.942    -172.387     522.966
  O      334.540    -172.999     521.751
  C      336.442    -172.166     523.019
  O      336.897    -171.645     521.758
  C      336.545    -171.094     524.134
  N      336.748    -171.669     525.462
  C      338.075    -171.930     525.836
  O      339.001    -171.698     525.063
  N      338.317    -172.490     527.070
  C      337.327    -172.753     527.864
  N      337.622    -173.319     529.070
  C      335.921    -172.476     527.521
  C      335.705    -171.942     526.321
  O      330.388    -169.768     523.368
  O      329.785    -171.285     521.344
  H      337.862    -171.516     521.835
  H      330.706    -169.037     522.783
  H      335.128    -172.723     528.211
  H      334.697    -171.713     525.996
  H      337.363    -170.393     523.924
  H      337.002    -173.081     523.213
  H      334.647    -172.999     523.830
  H      334.579    -170.396     522.160
  H      338.590    -173.554     529.252
  H      332.789    -171.442     524.404
  H      336.915    -173.720     529.669
  H      332.753    -169.784     523.739
  P      333.986    -174.506     521.822
  C      336.309    -175.493     521.205
  O      335.243    -175.453     522.145
  O      333.654    -174.842     520.294
  O      332.794    -174.698     522.713
  H      332.837    -175.372     520.219
  H      337.068    -176.162     521.554
  H      336.722    -174.512     521.092
  H      335.939    -175.835     520.261

 6  7  8  9  10  11  12  13  14  15  16  26  30  31  32  33  35 0
 6-311+G(2d,p)
 ****
 37  38 0
 6-311+G(2d,p)
 ****
 1  2  3  4  5  17  18  19  20  21  22  23  24  25 0
 3-21G
 ****
 27  28  29  34  36  39  40  41  42  43  44  45  46 0
 3-21G
 ****


