%nproc=1
%NoSave
%Mem=1900MB
#P OB98/GEN NMR

erre ene a

0 1
  C     -138.021    -253.984     113.819
  O     -137.232    -253.529     112.716
  P     -136.702    -254.655     111.696
  C     -136.939    -253.529     109.361
  O     -137.475    -254.447     110.307
  C     -138.037    -252.622     108.809
  O     -138.634    -251.836     109.853
  C     -137.547    -251.613     107.780
  O     -137.393    -252.200     106.495
  C     -138.699    -250.616     107.777
  O     -139.760    -251.092     106.927
  C     -139.147    -250.623     109.248
  N     -140.320    -246.135     111.293
  C     -141.109    -247.018     110.579
  N     -142.403    -246.662     110.413
  N     -140.671    -248.140     110.080
  C     -139.365    -248.376     110.351
  C     -138.481    -247.583     111.045
  C     -138.972    -246.325     111.566
  O     -138.307    -245.495     112.175
  N     -137.242    -248.163     111.123
  C     -137.382    -249.318     110.505
  N     -138.648    -249.490     110.005
  O     -137.351    -255.998     112.281
  O     -135.217    -254.743     111.611
  H     -139.437    -251.025     106.006
  H     -136.800    -256.768     112.039
  H     -140.707    -245.280     111.648
  H     -136.603    -250.062     110.395
  H     -140.239    -250.645     109.343
  H     -138.405    -249.629     107.400
  H     -142.823    -245.849     110.830
  H     -136.628    -251.117     108.120
  H     -143.004    -247.318     109.922
  H     -138.813    -253.260     108.363
  H     -136.469    -254.075     108.542
  H     -136.151    -252.942     109.846
  P     -135.943    -252.785     106.131
  C     -136.493    -255.270     105.618
  O     -135.989    -254.332     106.548
  O     -134.991    -252.115     107.229
  O     -135.491    -252.492     104.742
  H     -134.087    -252.017     106.878
  H     -136.114    -255.072     104.612
  H     -137.587    -255.233     105.614
  H     -136.176    -256.271     105.918
  H     -138.311    -253.147     114.420
  H     -137.447    -254.666     114.411
  H     -138.896    -254.479     113.452

 3  4  5  6  7  8  9  10  11  12  23  26  30  31  33  0
 6-311+G(2d,p)
 ****
 35  36  37  38 0
 6-311+G(2d,p)
 ****
 1  2  13  14  15  16  17  18  19  20  21  22  24  25  27  28  29 0
 3-21G
 ****
 32  34  39  40  41  42  43  44  45  46  47  48  49 0
 3-21G
 ****


