%nproc=1
%NoSave
%Mem=1900MB
#P OB98/GEN NMR

erre ene a

0 1
  C      -30.331      37.232      47.780
  O      -29.264      36.813      46.954
  H      -30.047      37.079      48.824
  H      -31.223      36.638      47.572
  H      -30.547      38.293      47.629
  P      -29.339      37.116      45.383
  C      -30.985      35.188      44.912
  O      -29.695      35.730      44.660
  C      -31.056      33.754      44.397
  O      -32.317      33.155      44.763
  C      -30.965      33.633      42.880
  O      -29.634      33.813      42.437
  C      -31.526      32.234      42.674
  O      -30.528      31.238      42.946
  C      -32.650      32.194      43.737
  N      -33.976      32.459      43.182
  C      -34.573      31.418      42.478
  O      -34.020      30.337      42.283
  N      -35.826      31.670      41.986
  C      -36.487      32.862      42.056
  O      -37.590      33.052      41.551
  C      -35.795      33.936      42.781
  C      -34.592      33.689      43.303
  O      -28.170      37.842      44.805
  O      -30.691      37.960      45.227
  H      -29.718      31.521      42.479
  H      -30.480      38.908      45.155
  H      -36.268      30.932      41.462
  H      -36.287      34.896      42.852
  H      -34.063      34.471      43.837
  H      -32.675      31.211      44.225
  H      -31.870      32.064      41.654
  H      -31.637      34.354      42.402
  H      -30.257      33.178      44.881
  H      -31.731      35.800      44.392
  H      -31.181      35.225      45.987
  P      -29.288      34.883      41.300
  C      -29.262      33.048      39.514
  O      -28.527      34.105      40.119
  O      -28.598      36.118      41.775
  O      -30.708      35.229      40.650
  H      -30.996      36.118      40.937
  H      -28.671      32.597      38.745
  H      -30.163      33.438      39.089
  H      -29.505      32.314      40.253

 6  7  8  9  10  11  12  13  14  15  16  26  31  32  33  34  35 0
 6-311+G(2d,p)
 ****
 36  37 0
 6-311+G(2d,p)
 ****
 1  2  3  4  5  17  18  19  20  21  22  23  24  25 0
 3-21G
 ****
 27  28  29  30  38  39  40  41  42  43  44  45 0
 3-21G
 ****


