%nproc=1
%NoSave
%Mem=1900MB
#P OB98/GEN NMR

erre ene a

0 1
  C      490.309     458.551      95.252
  O      490.439     459.110      96.565
  P      491.603     460.092      97.017
  C      493.611     458.597      97.841
  O      492.997     459.350      96.786
  C      495.059     458.196      97.550
  O      495.115     457.430      96.318
  C      495.928     459.442      97.328
  O      496.462     460.150      98.422
  C      496.975     459.012      96.295
  O      498.186     458.568      96.906
  C      496.274     457.847      95.561
  N      497.382     457.505      90.573
  C      498.121     457.057      91.666
  N      499.320     456.497      91.394
  N      497.706     457.174      92.906
  C      496.531     457.845      93.028
  C      495.732     458.353      92.031
  C      496.165     458.161      90.658
  O      495.547     458.536      89.656
  N      494.630     458.982      92.535
  C      494.761     458.885      93.850
  N      495.908     458.182      94.187
  O      491.409     460.772      98.338
  O      491.593     461.243      95.877
  H      497.970     457.783      97.453
  H      491.854     462.078      96.313
  H      497.735     457.377      89.642
  H      494.087     459.281      94.589
  H      496.949     456.987      95.499
  H      497.236     459.851      95.647
  H      499.733     456.476      90.485
  H      495.291     460.186      96.794
  H      499.935     456.349      92.197
  H      495.450     457.535      98.333
  H      492.976     457.713      97.972
  H      493.555     459.163      98.773
  P      496.133     461.675      98.824
  C      498.355     462.377      97.753
  O      496.962     462.636      97.859
  O      496.876     461.853     100.232
  O      494.674     461.995      98.951
  H      496.529     462.663     100.687
  H      498.851     463.265      97.337
  H      498.517     461.513      97.095
  H      498.780     462.157      98.736
  H      489.441     457.926      95.215
  H      491.178     457.969      95.024
  H      490.211     459.340      94.536

 3  4  5  6  7  8  9  10  11  12  23  26  30  31 0
 6-311+G(2d,p)
 ****
 33  35  36  37  38 0
 6-311+G(2d,p)
 ****
 1  2  13  14  15  16  17  18  19  20  21  22  24  25 0
 3-21G
 ****
 27  28  29  32  34  39  40  41  42  43  44  45  46  47  48  49 0
 3-21G
 ****


