%nproc=1
%NoSave
%Mem=1900MB
#P OB98/GEN NMR

erre ene a

0 1
  C     -236.580     109.870      89.784
  O     -235.431     110.465      89.172
  P     -235.398     110.675      87.591
  C     -234.589     108.249      87.212
  O     -235.538     109.249      86.864
  C     -234.976     106.915      86.561
  O     -234.822     106.964      85.124
  C     -234.096     105.763      87.006
  O     -234.232     105.325      88.349
  C     -234.334     104.727      85.914
  O     -235.525     103.977      86.150
  C     -234.499     105.628      84.670
  N     -233.315     105.629      83.813
  C     -232.860     104.387      83.395
  O     -233.370     103.324      83.750
  N     -231.755     104.396      82.579
  C     -231.065     105.508      82.178
  O     -230.073     105.457      81.467
  C     -231.590     106.799      82.670
  C     -232.670     106.797      83.445
  O     -234.308     111.551      87.070
  O     -236.837     111.346      87.297
  H     -235.494     103.191      85.559
  H     -236.704     112.048      86.630
  H     -231.412     103.507      82.259
  H     -231.063     107.697      82.373
  H     -233.073     107.736      83.824
  H     -235.352     105.291      84.063
  H     -233.509     104.008      85.850
  H     -233.042     106.081      86.907
  H     -236.032     106.716      86.777
  H     -234.548     108.140      88.299
  H     -233.592     108.566      86.896
  P     -233.112     105.574      89.465
  C     -231.850     103.400      88.817
  O     -231.783     104.796      89.040
  O     -233.540     105.470      90.893
  O     -232.707     107.103      89.171
  H     -232.469     107.525      90.018
  H     -230.857     103.041      88.555
  H     -232.536     103.181      87.997
  H     -232.182     102.885      89.726
  H     -236.429     109.808      90.841
  H     -236.727     108.888      89.386
  H     -237.443     110.470      89.582

 3  4  5  6  7  8  9  10  11  12  13  23  28  29  30  31  32 0
 6-311+G(2d,p)
 ****
 33  34 0
 6-311+G(2d,p)
 ****
 1  2  14  15  16  17  18  19  20  21  22  24  25  26  27 0
 3-21G
 ****
 35  36  37  38  39  40  41  42  43  44  45 0
 3-21G
 ****


