%nproc=1
%NoSave
%Mem=1900MB
#P OB98/GEN NMR

erre ene a

0 1
  C      -54.964     -38.720      45.703
  O      -56.280     -38.824      45.147
  P      -56.599     -39.776      43.894
  C      -58.151     -41.239      45.323
  O      -58.008     -40.527      44.099
  C      -59.617     -41.480      45.715
  O      -60.305     -40.220      45.955
  C      -60.447     -42.247      44.675
  O      -61.417     -42.988      45.416
  C      -61.114     -41.114      43.907
  O      -62.256     -41.526      43.170
  C      -61.420     -40.147      45.046
  N      -63.844     -37.160      41.659
  C      -64.011     -38.459      41.994
  N      -63.355     -39.173      42.932
  C      -62.468     -38.405      43.587
  C      -62.194     -37.061      43.368
  C      -62.921     -36.434      42.338
  N      -62.724     -35.124      41.963
  N      -61.197     -36.618      44.215
  C      -60.870     -37.677      44.931
  N      -61.614     -38.783      44.591
  O      -55.474     -40.686      43.515
  O      -56.897     -38.756      42.691
  H      -62.742     -40.727      42.886
  H      -56.421     -39.052      41.893
  H      -64.769     -38.997      41.431
  H      -60.096     -37.711      45.683
  H      -62.322     -40.449      45.596
  H      -60.392     -40.691      43.194
  H      -59.854     -42.903      44.040
  H      -59.616     -42.021      46.673
  H      -57.650     -40.669      46.120
  H      -63.226     -34.789      41.158
  H      -61.957     -34.604      42.370
  H      -57.636     -42.203      45.232
  P      -61.546     -44.582      45.279
  C      -59.415     -45.398      46.441
  O      -60.814     -45.213      46.560
  O      -61.100     -45.137      43.964
  O      -63.095     -44.886      45.551
  H      -63.320     -45.769      45.194
  H      -59.208     -46.274      45.816
  H      -58.990     -45.556      47.434
  H      -58.940     -44.515      45.995
  H      -54.977     -38.035      46.525
  H      -54.287     -38.365      44.954
  H      -54.644     -39.682      46.045

 3  4  5  6  7  8  9  10  11  12  22  25  29  30  31  32 0
 6-311+G(2d,p)
 ****
 33  36  37 0
 6-311+G(2d,p)
 ****
 1  2  13  14  15  16  17  18  19  20  21  23  24  26 0
 3-21G
 ****
 27  28  34  35  38  39  40  41  42  43  44  45  46  47  48 0
 3-21G
 ****


