%nproc=1
%NoSave
%Mem=1900MB
#P OB98/GEN NMR

erre ene a

0 1
  C       -0.993      88.056      72.380
  O       -1.853      88.175      71.247
  P       -2.615      89.563      70.999
  C       -4.589      88.584      69.665
  O       -3.451      89.439      69.636
  C       -5.209      88.460      68.273
  O       -5.832      89.691      67.855
  C       -4.194      88.135      67.190
  O       -3.790      86.779      67.264
  C       -4.963      88.516      65.935
  O       -5.849      87.459      65.532
  C       -5.780      89.737      66.413
  N       -5.248      91.005      65.939
  C       -6.165      91.862      65.320
  O       -7.335      91.513      65.166
  N       -5.725      93.086      64.877
  C       -4.481      93.418      65.033
  N       -4.104      94.643      64.579
  C       -3.482      92.539      65.669
  C       -3.927      91.357      66.087
  O       -1.777      90.791      71.124
  O       -3.769      89.536      72.116
  H       -6.274      87.764      64.706
  H       -3.972      90.455      72.380
  H       -2.458      92.865      65.780
  H       -3.259      90.648      66.562
  H       -6.818      89.659      66.064
  H       -4.294      88.715      65.092
  H       -3.317      88.787      67.298
  H       -5.977      87.676      68.310
  H       -4.806      95.222      64.136
  H       -5.326      88.982      70.367
  H       -3.171      95.013      64.698
  H       -4.284      87.605      70.050
  P       -2.218      86.470      67.285
  C       -1.971      84.110      66.246
  O       -2.032      84.887      67.425
  O       -1.763      87.024      68.719
  O       -1.438      87.116      66.187
  H       -0.858      87.381      68.660
  H       -1.536      83.136      66.491
  H       -1.352      84.588      65.483
  H       -2.980      83.954      65.855
  H       -0.565      87.076      72.401
  H       -1.557      88.218      73.275
  H       -0.212      88.785      72.313

 3  4  5  6  7  8  9  10  11  12  13  23  27  28  29  30  32 0
 6-311+G(2d,p)
 ****
 34  35 0
 6-311+G(2d,p)
 ****
 1  2  14  15  16  17  18  19  20  21  22  24  25  26 0
 3-21G
 ****
 31  33  36  37  38  39  40  41  42  43  44  45  46 0
 3-21G
 ****


