%nproc=1
%NoSave
%Mem=1900MB
#P OB98/GEN NMR

erre ene a

0 1
  C     -440.418    -196.143    -402.395
  O     -440.320    -195.180    -403.421
  P     -439.108    -195.253    -404.476
  C     -440.699    -194.307    -406.261
  O     -439.405    -194.218    -405.666
  C     -441.080    -192.971    -406.914
  O     -441.352    -191.962    -405.916
  C     -439.976    -192.385    -407.784
  O     -439.823    -193.081    -409.012
  C     -440.473    -190.934    -407.920
  O     -441.473    -190.840    -408.933
  C     -441.071    -190.687    -406.518
  N     -440.197    -189.859    -405.682
  C     -440.551    -188.513    -405.550
  O     -441.507    -188.052    -406.190
  N     -439.819    -187.731    -404.701
  C     -438.755    -188.201    -404.146
  N     -438.094    -187.392    -403.270
  C     -438.248    -189.572    -404.379
  C     -439.032    -190.346    -405.143
  O     -438.738    -196.631    -404.920
  O     -437.888    -194.564    -403.700
  H     -437.091    -195.145    -403.761
  H     -441.681    -189.888    -409.036
  H     -437.317    -189.906    -403.946
  H     -438.765    -191.385    -405.361
  H     -442.047    -190.181    -406.627
  H     -439.662    -190.253    -408.194
  H     -439.013    -192.390    -407.238
  H     -441.995    -193.127    -407.504
  H     -438.470    -186.466    -403.121
  H     -441.434    -194.551    -405.482
  H     -437.465    -187.749    -402.554
  H     -440.704    -195.106    -406.996
  P     -438.344    -193.215    -409.588
  C     -438.175    -195.779    -409.222
  O     -438.177    -194.714    -410.149
  O     -437.422    -193.216    -408.268
  O     -437.941    -192.127    -410.538
  H     -436.584    -192.731    -408.453
  H     -438.423    -196.709    -409.754
  H     -438.927    -195.626    -408.439
  H     -437.189    -195.879    -408.769
  H     -441.279    -195.938    -401.794
  H     -439.540    -196.104    -401.785
  H     -440.509    -197.117    -402.828

 3  4  5  6  7  8  9  10  11  12  13  24  27  28  29  30  32 0
 6-311+G(2d,p)
 ****
 34  35 0
 6-311+G(2d,p)
 ****
 1  2  14  15  16  17  18  19  20  21  22  23  25  26 0
 3-21G
 ****
 31  33  36  37  38  39  40  41  42  43  44  45  46 0
 3-21G
 ****


