%nproc=1
%NoSave
%Mem=1900MB
#P OB98/GEN NMR

erre ene a

0 1
  C     -672.314    1396.208    -893.270
  O     -670.938    1396.260    -893.600
  P     -669.867    1395.345    -892.800
  C     -669.768    1393.742    -894.830
  O     -669.015    1394.547    -893.960
  C     -669.248    1393.905    -896.250
  O     -669.583    1395.201    -896.810
  C     -667.702    1393.864    -896.360
  O     -667.073    1392.642    -896.040
  C     -667.479    1394.444    -897.750
  O     -667.672    1393.436    -898.770
  C     -668.619    1395.520    -897.850
  N     -668.069    1396.862    -897.700
  C     -667.841    1397.537    -898.880
  O     -667.998    1397.083    -900.000
  N     -667.293    1398.821    -898.730
  C     -666.932    1399.393    -897.530
  O     -666.428    1400.522    -897.490
  C     -667.252    1398.618    -896.340
  C     -667.767    1397.427    -896.440
  O     -670.467    1394.464    -891.770
  O     -668.800    1396.420    -892.240
  H     -667.176    1392.645    -898.500
  H     -668.363    1396.937    -892.950
  H     -667.051    1399.311    -899.560
  H     -667.003    1399.074    -895.380
  H     -668.005    1396.803    -895.550
  H     -669.131    1395.443    -898.800
  H     -666.476    1394.820    -897.890
  H     -667.307    1394.599    -895.650
  H     -669.699    1393.128    -896.910
  H     -670.804    1394.030    -894.800
  H     -669.705    1392.695    -894.520
  P     -665.535    1392.544    -895.580
  C     -665.995    1392.551    -893.000
  O     -665.488    1391.840    -894.170
  O     -664.671    1393.740    -895.800
  O     -665.009    1391.346    -896.560
  H     -664.062    1391.512    -896.790
  H     -665.805    1391.951    -892.120
  H     -667.058    1392.741    -893.140
  H     -665.434    1393.489    -892.910
  H     -672.858    1396.878    -893.903
  H     -672.447    1396.496    -892.248
  H     -672.677    1395.211    -893.410

 3  4  5  6  7  8  9  10  11  12  13  23  28  29  30  31  32 0
 6-311+G(2d,p)
 ****
 33  34 0
 6-311+G(2d,p)
 ****
 1  2  14  15  16  17  18  19  20  21  22  24  25  26  27 0
 3-21G
 ****
 35  36  37  38  39  40  41  42  43  44  45 0
 3-21G
 ****


