%nproc=1
%NoSave
%Mem=1900MB
#P OB98/GEN NMR

erre ene a

0 1
  C      177.943     231.273    -359.779
  O      179.216     230.869    -359.262
  P      179.957     231.794    -358.181
  C      179.094     230.529    -356.096
  O      179.134     231.762    -356.807
  C      179.000     230.796    -354.586
  O      177.788     231.523    -354.254
  C      178.925     229.519    -353.766
  O      180.091     228.729    -353.714
  C      178.360     230.014    -352.444
  O      179.385     230.557    -351.605
  C      177.402     231.131    -352.919
  N      175.995     230.722    -352.872
  C      175.254     231.191    -351.792
  O      175.736     231.872    -350.890
  N      173.939     230.815    -351.763
  C      173.314     230.006    -352.670
  O      172.138     229.684    -352.582
  C      174.152     229.522    -353.774
  C      175.433     229.893    -353.825
  O      180.358     233.150    -358.656
  O      181.261     230.927    -357.818
  H      178.957     230.858    -350.785
  H      182.016     231.543    -357.742
  H      173.384     231.153    -350.990
  H      173.693     228.874    -354.508
  H      176.072     229.544    -354.633
  H      177.506     232.023    -352.289
  H      177.880     229.208    -351.883
  H      178.154     228.873    -354.213
  H      179.847     231.414    -354.291
  H      179.986     229.944    -356.320
  H      178.239     229.943    -356.447
  P      180.133     227.180    -354.143
  C      182.055     227.304    -355.879
  O      180.681     227.092    -355.646
  O      178.946     226.338    -353.797
  O      181.399     226.653    -353.309
  H      181.235     225.721    -353.059
  H      182.250     227.225    -356.954
  H      182.656     226.556    -355.359
  H      182.348     228.307    -355.549
  H      177.597     230.545    -360.483
  H      178.040     232.221    -360.265
  H      177.241     231.354    -358.975

 3  4  5  6  7  8  9  10  11  12  13  23  28  29  30  31  32 0
 6-311+G(2d,p)
 ****
 33  34 0
 6-311+G(2d,p)
 ****
 1  2  14  15  16  17  18  19  20  21  22  24  25  26  27 0
 3-21G
 ****
 35  36  37  38  39  40  41  42  43  44  45 0
 3-21G
 ****


