%nproc=1
%NoSave
%Mem=1900MB
#P OB98/GEN NMR

erre ene a

0 1
  C     -323.528     365.423     141.539
  O     -322.803     365.906     142.659
  P     -322.806     365.041     144.003
  C     -323.409     365.507     146.491
  O     -323.550     365.903     145.136
  C     -323.916     366.608     147.422
  O     -323.109     367.811     147.234
  C     -325.381     367.001     147.193
  O     -325.939     367.360     148.464
  C     -325.257     368.238     146.323
  O     -326.425     369.046     146.327
  C     -324.027     368.891     146.959
  N     -323.419     369.913     146.109
  C     -323.776     371.235     146.344
  O     -324.566     371.591     147.217
  N     -323.236     372.161     145.488
  C     -322.467     371.889     144.393
  O     -322.113     372.754     143.601
  C     -322.122     370.472     144.194
  C     -322.603     369.564     145.049
  O     -321.272     365.059     144.457
  O     -323.329     363.648     143.851
  H     -326.259     369.805     145.740
  H     -320.835     364.225     144.205
  H     -323.473     373.124     145.649
  H     -321.493     370.225     143.348
  H     -322.380     368.511     144.914
  H     -324.292     369.337     147.925
  H     -325.060     367.939     145.287
  H     -325.977     366.212     146.723
  H     -323.769     366.283     148.463
  H     -322.356     365.317     146.703
  H     -323.960     364.574     146.659
  P     -327.541     367.492     148.571
  C     -329.215     369.499     148.647
  O     -327.873     369.059     148.568
  O     -327.772     367.050     150.092
  O     -328.281     366.648     147.581
  H     -327.122     367.438     150.701
  H     -329.821     368.834     149.266
  H     -329.636     369.543     147.642
  H     -329.232     370.500     149.083
  H     -323.427     366.111     140.725
  H     -324.562     365.326     141.798
  H     -323.142     364.468     141.249

 3  4  5  6  7  8  9  10  11  12  13  23  28  29  30  31  32 0
 6-311+G(2d,p)
 ****
 33  34 0
 6-311+G(2d,p)
 ****
 1  2  14  15  16  17  18  19  20  21  22  24  25  26 0
 3-21G
 ****
 27  35  36  37  38  39  40  41  42  43  44  45 0
 3-21G
 ****


