%nproc=1
%NoSave
%Mem=1900MB
#P OB98/GEN NMR

erre ene a

0 1
  C     -626.805    -891.083     159.604
  O     -628.199    -890.873     159.411
  P     -629.275    -891.038     160.597
  C     -629.569    -893.478     159.796
  O     -629.438    -892.609     160.922
  C     -629.724    -894.947     160.229
  O     -630.499    -895.048     161.434
  C     -630.389    -895.847     159.186
  O     -629.471    -896.200     158.173
  C     -630.854    -896.992     160.081
  O     -629.772    -897.912     160.327
  C     -631.253    -896.266     161.370
  N     -635.913    -898.355     161.707
  C     -634.690    -898.903     161.670
  N     -633.476    -898.278     161.569
  C     -633.644    -896.942     161.543
  C     -634.850    -896.237     161.564
  C     -636.021    -897.008     161.657
  N     -637.275    -896.457     161.675
  N     -634.624    -894.891     161.498
  C     -633.303    -894.762     161.448
  N     -632.675    -896.000     161.470
  O     -630.559    -890.320     160.366
  O     -628.523    -890.464     161.896
  H     -630.106    -898.573     160.965
  H     -629.189    -890.122     162.526
  H     -634.638    -900.000     161.718
  H     -632.774    -893.820     161.388
  H     -630.984    -896.850     162.269
  H     -631.669    -897.561     159.605
  H     -631.259    -895.333     158.770
  H     -628.706    -895.307     160.469
  H     -628.665    -893.361     159.171
  H     -638.074    -897.073     161.710
  H     -637.374    -895.442     161.581
  H     -630.444    -893.168     159.211
  P     -629.609    -895.550     156.709
  C     -631.029    -897.394     155.654
  O     -630.990    -896.044     156.090
  O     -628.418    -895.701     155.830
  O     -629.894    -894.008     157.017
  H     -629.549    -893.450     156.303
  H     -630.560    -897.466     154.670
  H     -632.085    -897.717     155.583
  H     -630.519    -898.050     156.366
  H     -626.288    -890.917     158.682
  H     -626.638    -892.088     159.931
  H     -626.441    -890.402     160.344

 3  4  5  6  7  8  9  10  11  12  22  25  29  30  31  32 0
 6-311+G(2d,p)
 ****
 33  36  37 0
 6-311+G(2d,p)
 ****
 1  2  13  14  15  16  17  18  19  20  21  23  24  26 0
 3-21G
 ****
 27  28  34  35  38  39  40  41  42  43  44  45  46  47  48 0
 3-21G
 ****


