%nproc=1
%NoSave
%Mem=1900MB
#P OB98/GEN NMR

erre ene a

0 1
  C       97.981    -142.527      44.625
  O       98.732    -142.268      43.457
  H       98.651    -142.482      45.487
  H       97.548    -143.528      44.572
  H       97.190    -141.786      44.760
  P       97.954    -141.986      42.084
  C       97.725    -144.504      41.581
  O       97.044    -143.279      41.803
  C       96.764    -145.691      41.701
  O       95.722    -145.558      40.691
  C       97.431    -147.060      41.493
  O       96.718    -148.011      42.291
  C       97.171    -147.309      40.020
  O       97.342    -148.667      39.686
  C       95.753    -146.748      39.880
  N       95.392    -146.481      38.490
  C       94.789    -147.521      37.794
  O       94.585    -148.633      38.283
  N       94.461    -147.262      36.492
  C       94.729    -146.109      35.816
  O       94.442    -145.942      34.638
  C       95.410    -145.058      36.593
  C       95.701    -145.286      37.875
  O       98.806    -141.562      40.935
  O       96.869    -140.873      42.466
  H       97.014    -148.838      38.777
  H       96.685    -140.306      41.694
  H       94.012    -148.002      35.977
  H       95.646    -144.132      36.082
  H       96.201    -144.533      38.472
  H       95.017    -147.455      40.291
  H       97.870    -146.733      39.402
  H       98.493    -147.065      41.748
  H       96.264    -145.639      42.677
  H       98.519    -144.593      42.329
  H       98.178    -144.495      40.582
  P       97.234    -148.467      43.739
  C       98.963    -150.038      42.656
  O       98.743    -149.001      43.608
  O       96.313    -149.405      44.452
  O       97.396    -147.100      44.563
  H       97.270    -147.273      45.514
  H       99.998    -150.310      42.658
  H       98.687    -149.692      41.682
  H       98.370    -150.890      42.914

 6  7  8  9  10  11  12  13  14  15  16  26  31  32  33  34  35 0
 6-311+G(2d,p)
 ****
 36  37 0
 6-311+G(2d,p)
 ****
 1  2  3  4  5  17  18  19  20  21  22  23  24  25 0
 3-21G
 ****
 27  28  29  30  38  39  40  41  42  43  44  45 0
 3-21G
 ****


