%nproc=1
%NoSave
%Mem=1900MB
#P OB98/GEN NMR

erre ene a

0 1
  C      728.536     -49.739    -502.814
  O      729.533     -49.754    -501.770
  P      729.762     -51.102    -500.925
  C      731.715     -52.178    -502.301
  O      730.349     -52.226    -501.907
  C      732.492     -53.319    -501.640
  O      731.983     -54.599    -502.059
  C      733.976     -53.350    -501.983
  O      734.712     -52.359    -501.273
  C      734.347     -54.773    -501.597
  O      734.606     -54.874    -500.184
  C      733.064     -55.547    -501.967
  N      733.212     -56.312    -503.206
  C      733.553     -57.652    -503.074
  O      733.789     -58.185    -501.982
  N      733.660     -58.360    -504.241
  C      733.522     -57.858    -505.504
  O      733.648     -58.544    -506.505
  C      733.243     -56.419    -505.584
  C      733.111     -55.722    -504.450
  O      728.262     -51.611    -500.694
  O      730.471     -50.938    -499.621
  H      735.384     -54.318    -500.007
  H      728.215     -52.130    -499.871
  H      733.883     -59.348    -504.165
  H      733.148     -55.972    -506.572
  H      732.900     -54.661    -504.500
  H      732.794     -56.244    -501.164
  H      735.241     -55.128    -502.109
  H      734.108     -53.225    -503.065
  H      732.356     -53.240    -500.547
  H      732.144     -51.220    -501.995
  H      731.769     -52.254    -503.398
  P      735.857     -51.589    -502.094
  C      734.175     -49.897    -503.153
  O      735.107     -50.936    -503.343
  O      736.680     -52.824    -502.692
  O      736.662     -50.666    -501.238
  H      736.106     -53.587    -502.903
  H      734.439     -49.261    -502.295
  H      733.182     -50.332    -502.989
  H      734.141     -49.270    -504.054
  H      728.514     -48.772    -503.272
  H      727.576     -49.957    -502.394
  H      728.779     -50.477    -503.550

 3  4  5  6  7  8  9  10  11  12  13  23  28  29  30  31  32 0
 6-311+G(2d,p)
 ****
 33  34 0
 6-311+G(2d,p)
 ****
 1  2  14  15  16  17  18  19  20  21  22  24  25  26 0
 3-21G
 ****
 27  35  36  37  38  39  40  41  42  43  44  45 0
 3-21G
 ****


