%nproc=1
%NoSave
%Mem=1900MB
#P OB98/GEN NMR

erre ene a

0 1
  C      357.130     -65.451     284.766
  O      357.458     -64.474     283.795
  H      358.002     -65.612     285.408
  H      356.864     -66.397     284.295
  H      356.301     -65.099     285.389
  P      356.431     -64.247     282.579
  C      355.196     -65.802     280.925
  O      356.192     -65.703     281.937
  C      355.635     -66.760     279.814
  O      355.598     -68.120     280.295
  C      354.726     -66.747     278.594
  O      354.791     -65.549     277.839
  C      355.048     -68.072     277.929
  O      356.173     -68.012     277.057
  C      355.381     -68.971     279.149
  N      354.335     -69.956     279.400
  C      354.699     -71.289     279.208
  O      355.822     -71.636     278.823
  N      353.719     -72.215     279.426
  C      352.421     -71.940     279.764
  O      351.577     -72.818     279.910
  C      352.092     -70.517     279.932
  C      353.045     -69.606     279.743
  O      356.829     -63.202     281.576
  O      355.040     -63.945     283.308
  H      356.367     -68.927     276.779
  H      354.390     -63.527     282.684
  H      353.970     -73.183     279.302
  H      351.069     -70.266     280.199
  H      352.826     -68.548     279.863
  H      356.318     -69.517     278.977
  H      354.201     -68.437     277.334
  H      353.690     -66.817     278.944
  H      356.668     -66.523     279.539
  H      355.052     -64.799     280.498
  H      354.253     -66.136     281.368
  P      353.589     -65.008     276.946
  C      352.403     -65.681     274.730
  O      353.448     -65.966     275.655
  O      353.504     -63.534     276.749
  O      352.311     -65.452     277.825
  H      351.617     -64.769     277.714
  H      352.430     -66.392     273.931
  H      352.535     -64.695     274.335
  H      351.458     -65.742     275.229

 6  7  8  9  10  11  12  13  14  15  16  26  31  32  33  34  35 0
 6-311+G(2d,p)
 ****
 36  37 0
 6-311+G(2d,p)
 ****
 1  2  3  4  5  17  18  19  20  21  22  23  24  25 0
 3-21G
 ****
 27  28  29  30  38  39  40  41  42  43  44  45 0
 3-21G
 ****


