%nproc=1
%NoSave
%Mem=1900MB
#P OB98/GEN NMR

erre ene a

0 1
  C     -122.708     451.890    -587.891
  O     -122.285     451.774    -589.235
  H     -122.041     452.581    -587.373
  H     -122.668     450.918    -587.399
  H     -123.729     452.287    -587.852
  P     -123.156     450.815    -590.184
  C     -124.739     452.754    -590.891
  O     -123.806     451.758    -591.304
  C     -125.061     453.669    -592.071
  O     -123.971     454.591    -592.292
  C     -125.249     452.934    -593.392
  O     -126.522     452.318    -593.495
  C     -125.032     454.065    -594.390
  O     -126.230     454.832    -594.576
  C     -123.962     454.914    -593.701
  N     -120.259     456.960    -596.562
  C     -121.425     457.459    -596.104
  N     -122.354     456.853    -595.336
  C     -121.962     455.606    -595.014
  C     -120.797     454.962    -595.400
  C     -119.916     455.695    -596.215
  N     -118.733     455.173    -596.696
  N     -120.767     453.678    -594.904
  C     -121.889     453.544    -594.221
  N     -122.639     454.686    -594.254
  O     -124.393     450.414    -589.252
  O     -122.435     449.613    -590.704
  H     -126.427     455.229    -593.704
  H     -124.245     449.522    -588.880
  H     -121.647     458.483    -596.409
  H     -122.207     452.650    -593.700
  H     -124.167     455.990    -593.786
  H     -124.728     453.672    -595.359
  H     -124.450     452.195    -593.522
  H     -125.959     454.256    -591.822
  H     -124.304     453.348    -590.083
  H     -125.645     452.260    -590.526
  H     -118.185     455.733    -597.328
  H     -118.531     454.199    -596.535
  P     -126.682     451.128    -594.555
  C     -126.530     449.036    -592.997
  O     -127.351     449.892    -593.784
  O     -125.183     450.632    -594.821
  O     -127.376     451.513    -595.820
  H     -125.080     450.364    -595.752
  H     -127.133     448.270    -592.556
  H     -126.057     449.606    -592.225
  H     -125.783     448.588    -593.618

 6  7  8  9  10  11  12  13  14  15  25  28  32  33  34  35 0
 6-311+G(2d,p)
 ****
 36  37  40 0
 6-311+G(2d,p)
 ****
 1  2  3  4  5  16  17  18  19  20  21  22  23  24 0
 3-21G
 ****
 26  27  29  30  31  38  39 41  42  43  44  45  46  47  48 0
 3-21G
 ****


