%nproc=1
%NoSave
%Mem=1900MB
#P OB98/GEN NMR

erre ene a

0 1
  C     -299.216     471.678     117.173
  O     -299.476     472.921     117.780
  P     -299.203     473.229     119.322
  C     -297.014     474.649     119.150
  O     -297.626     473.423     119.529
  C     -296.565     475.445     120.384
  O     -295.834     476.615     119.944
  C     -297.770     475.950     121.207
  O     -297.605     475.836     122.610
  C     -297.997     477.347     120.637
  O     -298.743     478.191     121.495
  C     -296.574     477.791     120.329
  N     -297.170     482.672     119.035
  C     -297.177     482.101     120.290
  N     -297.569     482.902     121.307
  N     -296.862     480.852     120.517
  C     -296.596     480.147     119.393
  C     -296.561     480.605     118.097
  C     -296.880     481.995     117.858
  O     -296.996     482.516     116.752
  N     -296.328     479.591     117.202
  C     -296.257     478.510     117.954
  N     -296.451     478.795     119.287
  O     -299.946     472.400     120.314
  O     -299.744     474.747     119.450
  H     -298.223     478.317     122.315
  H     -300.122     474.844     120.347
  H     -297.503     483.622     118.917
  H     -296.100     477.502     117.589
  H     -296.089     478.217     121.212
  H     -298.581     477.236     119.716
  H     -297.962     483.820     121.146
  H     -298.651     475.338     121.005
  H     -297.822     482.447     122.180
  H     -295.883     474.831     120.982
  H     -297.771     475.214     118.594
  H     -296.171     474.468     118.479
  P     -298.723     475.710     123.743
  C     -298.788     473.154     123.939
  O     -299.493     474.316     123.550
  O     -299.840     476.788     123.342
  O     -298.238     475.961     125.131
  H     -300.175     477.220     124.152
  H     -299.298     472.278     123.506
  H     -298.800     473.068     125.029
  H     -297.759     473.178     123.580
  H     -299.482     471.724     116.138
  H     -299.793     470.917     117.656
  H     -298.175     471.448     117.264

 3  4  5  6  7  8  9  10  11  12  23  26  30  31 0
 6-311+G(2d,p)
 ****
 33  35  36  37  38 0
 6-311+G(2d,p)
 ****
 1  2  13  14  15  16  17  18  19  20  21  22  24  25 0
 3-21G
 ****
 27  28  29  32  34  39  40  41  42  43  44  45  46  47  48  49 0
 3-21G
 ****


