%nproc=1
%NoSave
%Mem=1900MB
#P OB98/GEN NMR

erre ene a

0 1
  C     -495.929     174.124    -156.145
  O     -494.828     173.294    -156.443
  H     -496.029     174.203    -155.059
  H     -496.847     173.690    -156.550
  H     -495.781     175.125    -156.562
  P     -494.383     173.209    -157.982
  C     -491.995     172.588    -157.175
  O     -493.082     172.268    -158.030
  C     -490.808     171.666    -157.462
  O     -490.564     171.594    -158.887
  C     -489.496     172.122    -156.828
  O     -489.396     171.727    -155.464
  C     -488.493     171.372    -157.695
  O     -488.449     169.988    -157.292
  C     -489.131     171.496    -159.091
  N     -485.091     173.891    -160.996
  C     -485.163     172.723    -160.259
  N     -483.993     172.106    -159.981
  N     -486.283     172.208    -159.822
  C     -487.377     172.937    -160.166
  C     -487.424     174.106    -160.895
  C     -486.183     174.665    -161.373
  O     -486.064     175.676    -162.045
  N     -488.712     174.541    -161.046
  C     -489.442     173.649    -160.395
  N     -488.672     172.659    -159.837
  O     -493.785     174.670    -158.275
  O     -495.464     172.865    -158.948
  H     -488.008     169.959    -156.418
  H     -494.009     174.920    -159.195
  H     -484.199     174.256    -161.290
  H     -490.521     173.676    -160.300
  H     -488.938     170.621    -159.714
  H     -487.483     171.767    -157.604
  H     -483.093     172.484    -160.239
  H     -489.341     173.203    -156.954
  H     -484.025     171.233    -159.472
  H     -491.077     170.661    -157.121
  H     -492.306     172.458    -156.131
  H     -491.708     173.637    -157.340
  P     -488.436     172.581    -154.510
  C     -490.285     171.940    -152.811
  O     -488.922     172.266    -153.013
  O     -488.926     174.084    -154.752
  O     -486.972     172.417    -154.776
  H     -488.208     174.712    -154.525
  H     -490.458     171.757    -151.771
  H     -490.529     171.063    -153.373
  H     -490.898     172.754    -153.137

 6  7  8  9  10  11  12  13  14  15  26  29  33  34 0
 6-311+G(2d,p)
 ****
 36  38  39  40  41 0
 6-311+G(2d,p)
 ****
 1  2  3  4  5  16  17  18  19  20  21  22  23  24  25 0
 3-21G
 ****
 27  28  30  31  32  35  37  42  43  44  45  46  47 0
 3-21G
 ****
 48  49 0
 3-21G
 ****


