%nproc=1
%NoSave
%Mem=1900MB
#P OB98/GEN NMR

erre ene a

0 1
  C      121.901    -267.797      26.483
  O      120.952    -267.592      25.454
  H      122.899    -267.820      26.039
  H      121.711    -268.750      26.983
  H      121.856    -266.979      27.208
  P      119.416    -267.509      25.907
  C      118.313    -266.394      27.989
  O      119.342    -266.349      27.012
  C      118.075    -264.999      28.580
  O      119.306    -264.544      29.216
  C      117.700    -263.936      27.533
  O      116.883    -262.947      28.182
  C      119.057    -263.339      27.199
  O      118.916    -262.125      26.498
  C      119.660    -263.286      28.599
  N      123.461    -259.964      29.410
  C      122.122    -259.851      29.553
  N      121.174    -260.782      29.329
  C      121.730    -261.943      28.939
  C      123.077    -262.211      28.758
  C      123.968    -261.153      29.008
  N      125.331    -261.262      28.856
  N      123.263    -263.518      28.344
  C      122.048    -264.027      28.278
  N      121.093    -263.110      28.620
  O      119.208    -268.853      26.748
  O      118.426    -267.383      24.798
  H      119.785    -261.681      26.392
  H      118.832    -269.549      26.177
  H      121.766    -258.881      29.888
  H      121.806    -265.040      27.983
  H      119.218    -262.485      29.204
  H      119.631    -264.011      26.553
  H      117.163    -264.345      26.673
  H      117.318    -265.069      29.368
  H      118.618    -267.086      28.782
  H      117.390    -266.758      27.530
  H      125.899    -260.451      29.041
  H      125.722    -262.138      28.540
  P      115.360    -262.755      27.707
  C      113.370    -264.448      27.549
  O      114.485    -263.967      28.287
  O      115.448    -263.127      26.150
  O      114.791    -261.387      27.892
  H      114.750    -262.652      25.660
  H      112.908    -265.252      28.083
  H      113.699    -264.798      26.593
  H      112.663    -263.656      27.415

 6  7  8  9  10  11  12  13  14  15  25  28  32  33  34  35 0
 6-311+G(2d,p)
 ****
 36  37  40 0
 6-311+G(2d,p)
 ****
 1  2  3  4  5  16  17  18  19  20  21  22  23  24 0
 3-21G
 ****
 26  27  29  30  31  38  39 41  42  43  44  45  46  47  48 0
 3-21G
 ****


