%nproc=1
%NoSave
%Mem=1900MB
#P OB98/GEN NMR

erre ene a

0 1
  C       35.467     -36.008      65.128
  O       34.642     -35.439      64.131
  H       35.968     -35.221      65.698
  H       34.844     -36.594      65.808
  H       36.211     -36.670      64.672
  P       35.377     -34.558      63.008
  C       35.462     -32.434      64.498
  O       36.198     -33.425      63.796
  C       36.322     -31.828      65.605
  O       36.760     -32.857      66.516
  C       37.597     -31.143      65.118
  O       37.336     -29.836      64.625
  C       38.404     -31.099      66.407
  O       37.943     -30.014      67.234
  C       38.043     -32.446      67.056
  N       42.549     -34.418      68.476
  C       41.802     -33.413      68.984
  N       40.603     -32.959      68.565
  C       40.171     -33.672      67.512
  C       40.806     -34.737      66.895
  C       42.058     -35.111      67.415
  N       42.845     -36.098      66.840
  N       40.059     -35.206      65.832
  C       39.000     -34.423      65.797
  N       39.019     -33.487      66.795
  O       34.162     -33.754      62.338
  O       36.152     -35.336      61.996
  H       37.855     -29.235      66.652
  H       33.881     -34.215      61.526
  H       42.227     -32.901      69.843
  H       38.202     -34.495      65.069
  H       37.925     -32.361      68.143
  H       39.475     -30.946      66.239
  H       38.129     -31.757      64.382
  H       35.696     -31.127      66.173
  H       34.570     -32.888      64.943
  H       43.841     -35.955      66.981
  H       42.550     -36.381      65.913
  H       35.153     -31.659      63.792
  P       38.024     -29.415      63.236
  C       40.102     -28.572      64.529
  O       39.611     -29.415      63.493
  O       37.658     -27.860      63.117
  O       37.563     -30.172      62.039
  H       37.197     -27.695      62.274
  H       41.166     -28.668      64.593
  H       39.662     -28.859      65.461
  H       39.848     -27.555      64.312

 6  7  8  9  10  11  12  13  14  15  25  28  32  33  34  35 0
 6-311+G(2d,p)
 ****
 36  39  40 0
 6-311+G(2d,p)
 ****
 1  2  3  4  5  16  17  18  19  20  21  22  23  24 0
 3-21G
 ****
 26  27  29  30  31  37  38  41  42  43  44  45  46  47  48 0
 3-21G
 ****


