%nproc=1
%NoSave
%Mem=1900MB
#P OB98/GEN NMR

erre ene a

0 1
  C      236.260     -39.728     120.600
  O      236.323     -38.533     121.353
  H      235.211     -40.015     120.487
  H      236.790     -40.539     121.106
  H      236.688     -39.567     119.605
  P      237.761     -38.047     121.876
  C      236.828     -37.731     124.265
  O      237.788     -38.395     123.446
  C      236.105     -38.724     125.179
  O      235.440     -39.730     124.389
  C      237.034     -39.491     126.106
  O      237.616     -38.702     127.121
  C      236.189     -40.702     126.484
  O      235.324     -40.466     127.589
  C      235.351     -40.920     125.200
  N      235.771     -42.109     124.469
  C      235.064     -43.275     124.754
  O      234.151     -43.332     125.581
  N      235.464     -44.397     124.083
  C      236.513     -44.475     123.216
  O      236.853     -45.517     122.676
  C      237.241     -43.214     122.972
  C      236.840     -42.108     123.602
  O      238.122     -36.625     121.564
  O      238.775     -39.118     121.249
  H      234.894     -41.316     127.806
  H      239.704     -38.785     121.274
  H      234.958     -45.248     124.268
  H      238.082     -43.240     122.291
  H      237.366     -41.167     123.442
  H      234.290     -41.040     125.457
  H      236.815     -41.560     126.746
  H      237.865     -39.876     125.508
  H      235.341     -38.178     125.744
  H      236.099     -37.254     123.599
  H      237.324     -36.957     124.860
  P      239.163     -38.313     127.145
  C      239.546     -40.304     128.777
  O      240.000     -39.602     127.620
  O      239.515     -36.979     127.726
  O      239.504     -38.254     125.569
  H      240.168     -37.552     125.436
  H      240.196     -41.131     128.970
  H      238.552     -40.663     128.609
  H      239.549     -39.644     129.619

 6  7  8  9  10  11  12  13  14  15  16  26  31  32  33  34  35 0
 6-311+G(2d,p)
 ****
 36  37 0
 6-311+G(2d,p)
 ****
 1  2  3  4  5  17  18  19  20  21  22  23  24  25 0
 3-21G
 ****
 27  28  29  30  38  39  40  41  42  43  44  45 0
 3-21G
 ****


