%nproc=1
%NoSave
%Mem=1900MB
#P OB98/GEN NMR

erre ene a

0 1
  C      263.493    -457.052    -659.630
  O      263.126    -455.739    -659.255
  H      264.223    -456.998    -660.448
  H      262.619    -457.610    -659.974
  H      263.948    -457.575    -658.783
  P      261.978    -455.611    -658.139
  C      263.406    -454.086    -656.564
  O      262.289    -454.191    -657.444
  C      263.515    -452.653    -656.050
  O      263.925    -451.763    -657.103
  C      262.216    -452.079    -655.509
  O      261.913    -452.540    -654.201
  C      262.531    -450.591    -655.532
  O      263.402    -450.275    -654.419
  C      263.282    -450.473    -656.876
  N      262.402    -450.129    -657.988
  C      262.982    -449.428    -659.058
  O      264.174    -449.118    -659.035
  N      262.184    -449.069    -660.114
  C      260.922    -449.389    -660.123
  N      260.173    -448.982    -661.198
  C      260.283    -450.140    -659.031
  C      261.062    -450.482    -658.007
  O      262.429    -456.659    -657.009
  O      260.571    -455.788    -658.617
  H      263.574    -449.315    -654.457
  H      261.850    -456.558    -656.211
  H      259.213    -450.369    -659.087
  H      260.662    -451.025    -657.173
  H      264.081    -449.720    -656.818
  H      261.653    -449.963    -655.439
  H      261.375    -452.271    -656.187
  H      264.317    -452.628    -655.283
  H      260.642    -448.421    -661.897
  H      264.312    -454.363    -657.121
  H      259.161    -449.028    -661.210
  H      263.286    -454.768    -655.721
  P      260.561    -453.406    -654.005
  C      261.326    -454.945    -652.053
  O      260.511    -453.856    -652.467
  O      260.886    -454.776    -654.779
  O      259.319    -452.755    -654.516
  H      260.116    -455.103    -655.264
  H      261.181    -455.122    -651.008
  H      262.354    -454.711    -652.236
  H      261.056    -455.822    -652.604

 6  7  8  9  10  11  12  13  14  15  16  26  30  31  32  33  35 0
 6-311+G(2d,p)
 ****
 37  38 0
 6-311+G(2d,p)
 ****
 1  2  3  4  5  17  18  19  20  21  22  23  24  25 0
 3-21G
 ****
 27  28  29  34  36  39  40  41  42  43  44  45  46 0
 3-21G
 ****


