%nproc=1
%NoSave
%Mem=1900MB
#P OB98/GEN NMR

erre ene a

0 1
  C      243.477    -176.994      18.031
  O      243.035    -175.771      17.475
  H      242.791    -177.786      17.720
  H      243.480    -176.941      19.123
  H      244.479    -177.239      17.667
  P      243.854    -174.437      17.816
  C      242.476    -173.933      19.942
  O      243.756    -174.249      19.406
  C      242.547    -172.647      20.760
  O      241.227    -172.228      21.156
  C      243.363    -172.763      22.046
  O      244.749    -172.640      21.771
  C      242.818    -171.582      22.830
  O      243.390    -170.360      22.326
  C      241.318    -171.641      22.483
  N      238.031    -171.494      26.347
  C      238.752    -170.474      25.760
  N      238.600    -169.243      26.297
  N      239.561    -170.643      24.747
  C      239.668    -171.935      24.358
  C      239.018    -173.035      24.873
  C      238.077    -172.822      25.952
  O      237.399    -173.696      26.485
  N      239.452    -174.196      24.285
  C      240.322    -173.793      23.378
  N      240.497    -172.428      23.388
  O      243.476    -173.216      17.036
  O      245.384    -174.846      17.592
  H      244.333    -170.360      22.575
  H      245.673    -174.644      16.682
  H      237.431    -171.303      27.132
  H      240.850    -174.441      22.689
  H      240.868    -170.644      22.434
  H      243.052    -171.635      23.896
  H      238.113    -169.076      27.165
  H      243.131    -173.688      22.586
  H      239.166    -168.494      25.916
  H      242.952    -171.858      20.109
  H      242.169    -174.772      20.577
  H      241.743    -173.818      19.137
  P      245.847    -173.470      22.601
  C      246.907    -171.241      23.374
  O      246.340    -172.480      23.762
  O      246.940    -174.059      21.777
  O      244.995    -174.542      23.419
  H      244.800    -175.361      22.898
  H      247.188    -170.689      24.246
  H      246.189    -170.680      22.813
  H      247.772    -171.418      22.770

 6  7  8  9  10  11  12  13  14  15  26  29  33  34 0
 6-311+G(2d,p)
 ****
 36  38  39  40  41 0
 6-311+G(2d,p)
 ****
 1  2  3  4  5  16  17  18  19  20  21  22  23  24  25 0
 3-21G
 ****
 27  28  30  31  32  35  37  42  43  44  45  46  47 0
 3-21G
 ****
 48  49 0
 3-21G
 ****


