%nproc=1
%NoSave
%Mem=1900MB
#P OB98/GEN NMR

erre ene a

0 1
  C      -55.456     -58.857     287.322
  O      -54.325     -58.684     286.494
  H      -55.279     -58.337     288.267
  H      -55.610     -59.918     287.534
  H      -56.349     -58.436     286.854
  P      -54.384     -59.220     284.985
  C      -53.578     -57.236     283.547
  O      -54.695     -57.955     284.052
  C      -53.970     -56.500     282.268
  O      -55.086     -55.618     282.522
  C      -52.866     -55.617     281.702
  O      -51.882     -56.388     281.041
  C      -53.670     -54.699     280.796
  O      -53.958     -55.336     279.543
  C      -54.959     -54.494     281.622
  N      -54.970     -53.229     282.354
  C      -55.718     -52.196     281.797
  O      -56.322     -52.299     280.730
  N      -55.726     -51.020     282.498
  C      -54.985     -50.746     283.610
  O      -54.959     -49.645     284.150
  C      -54.194     -51.866     284.141
  C      -54.224     -53.036     283.500
  O      -55.260     -60.406     284.754
  O      -52.854     -59.549     284.641
  H      -54.540     -54.725     279.051
  H      -52.719     -60.515     284.655
  H      -56.251     -50.256     282.103
  H      -53.605     -51.692     285.031
  H      -53.642     -53.871     283.872
  H      -55.838     -54.517     280.966
  H      -53.140     -53.774     280.571
  H      -52.416     -55.018     282.502
  H      -54.292     -57.246     281.527
  H      -52.773     -57.945     283.327
  H      -53.233     -56.531     284.311
  P      -50.369     -56.369     281.564
  C      -49.854     -58.879     281.384
  O      -50.075     -57.781     282.263
  O      -49.987     -55.173     282.371
  O      -49.502     -56.445     280.221
  H      -48.943     -55.648     280.151
  H      -49.669     -59.763     281.957
  H      -49.008     -58.674     280.762
  H      -50.719     -59.025     280.772

 6  7  8  9  10  11  12  13  14  15  16  26  31  32  33  34  35 0
 6-311+G(2d,p)
 ****
 36  37 0
 6-311+G(2d,p)
 ****
 1  2  3  4  5  17  18  19  20  21  22  23  24  25 0
 3-21G
 ****
 27  28  29  30  38  39  40  41  42  43  44  45 0
 3-21G
 ****


