%nproc=1
%NoSave
%Mem=1900MB
#P OB98/GEN NMR

erre ene a

0 1
  C     -412.792    -100.778     602.795
  O     -411.569    -101.325     603.262
  P     -411.516    -102.234     604.586
  C     -410.064    -100.415     605.705
  O     -411.238    -101.208     605.786
  C     -410.395     -98.956     606.042
  O     -411.578     -98.555     605.321
  C     -410.701     -98.706     607.516
  O     -409.508     -98.688     608.286
  C     -411.456     -97.385     607.431
  O     -410.535     -96.290     607.283
  C     -412.267     -97.564     606.127
  N     -413.654     -97.951     606.372
  C     -414.563     -96.905     606.585
  O     -414.195     -95.731     606.559
  N     -415.881     -97.214     606.791
  C     -416.264     -98.459     606.808
  N     -417.597     -98.707     606.951
  C     -415.334     -99.587     606.644
  C     -414.058     -99.265     606.429
  O     -410.571    -103.388     604.517
  O     -413.036    -102.665     604.835
  H     -411.070     -95.502     607.070
  H     -413.300    -103.495     604.370
  H     -415.697    -100.607     606.682
  H     -413.315    -100.036     606.273
  H     -412.252     -96.632     605.543
  H     -412.082     -97.181     608.308
  H     -411.364     -99.489     607.906
  H     -409.560     -98.329     605.712
  H     -418.214     -97.902     606.884
  H     -409.677    -100.462     604.677
  H     -418.005     -99.593     606.689
  H     -409.307    -100.816     606.390
  P     -409.211     -99.949     609.235
  C     -409.348     -98.221     611.166
  O     -409.697     -99.514     610.699
  O     -407.616     -99.967     609.330
  O     -409.764    -101.240     608.728
  H     -407.248    -100.648     608.733
  H     -409.946     -97.998     612.057
  H     -409.564     -97.463     610.403
  H     -408.292     -98.189     611.435
  H     -412.612    -100.209     601.907
  H     -413.209    -100.142     603.548
  H     -413.477    -101.571     602.578

 3  4  5  6  7  8  9  10  11  12  13  23  27  28  29  30  32 0
 6-311+G(2d,p)
 ****
 34  35 0
 6-311+G(2d,p)
 ****
 1  2  14  15  16  17  18  19  20  21  22  24  25  26 0
 3-21G
 ****
 31  33  36  37  38  39  40  41  42  43  44  45  46 0
 3-21G
 ****


