%nproc=1
%NoSave
%Mem=1900MB
#P OB98/GEN NMR

erre ene a

0 1
  C      124.549     -93.485     -80.320
  O      124.172     -94.052     -81.558
  H      123.912     -92.618     -80.126
  H      125.590     -93.155     -80.350
  H      124.409     -94.207     -79.511
  P      124.999     -95.306     -82.114
  C      124.627     -97.051     -83.980
  O      124.288     -95.762     -83.480
  C      123.756     -97.391     -85.196
  O      122.379     -97.457     -84.747
  C      123.853     -96.330     -86.303
  O      124.178     -96.879     -87.579
  C      122.537     -95.571     -86.176
  O      122.096     -94.952     -87.366
  C      121.581     -96.627     -85.611
  N      120.443     -96.068     -84.882
  C      119.562     -95.263     -85.596
  O      119.650     -95.004     -86.796
  N      118.518     -94.740     -84.872
  C      118.285     -94.936     -83.545
  O      117.330     -94.447     -82.952
  C      119.263     -95.778     -82.840
  C      120.283     -96.297     -83.529
  O      125.238     -96.408     -81.136
  O      126.377     -94.666     -82.624
  H      121.182     -94.635     -87.217
  H      127.079     -94.841     -81.971
  H      117.868     -94.165     -85.382
  H      119.114     -95.946     -81.782
  H      121.023     -96.924     -83.041
  H      121.185     -97.252     -86.412
  H      122.671     -94.776     -85.432
  H      124.681     -95.638     -86.110
  H      124.033     -98.386     -85.562
  H      124.462     -97.778     -83.178
  H      125.684     -97.069     -84.265
  P      125.624     -96.824     -88.250
  C      127.102     -98.460     -89.669
  O      125.846     -98.181     -89.069
  O      126.733     -96.383     -87.358
  O      125.454     -95.709     -89.406
  H      126.318     -95.259     -89.488
  H      127.057     -99.405     -90.168
  H      127.859     -98.492     -88.913
  H      127.337     -97.693     -90.378

 6  7  8  9  10  11  12  13  14  15  16  26  31  32  33  34  35 0
 6-311+G(2d,p)
 ****
 36  37 0
 6-311+G(2d,p)
 ****
 1  2  3  4  5  17  18  19  20  21  22  23  24  25 0
 3-21G
 ****
 27  28  29  30  38  39  40  41  42  43  44  45 0
 3-21G
 ****


