%nproc=1
%NoSave
%Mem=1900MB
#P OB98/GEN NMR

erre ene a

0 1
  C      111.377     -55.932     -37.691
  O      111.018     -55.736     -36.342
  H      111.611     -56.988     -37.840
  H      112.266     -55.339     -37.923
  H      110.565     -55.653     -38.367
  P      110.203     -54.418     -35.946
  C      108.595     -55.345     -34.152
  O      109.748     -54.553     -34.411
  C      108.748     -56.163     -32.870
  O      109.796     -57.141     -33.040
  C      109.140     -55.301     -31.666
  O      108.045     -54.724     -30.976
  C      109.875     -56.307     -30.785
  O      108.966     -57.000     -29.913
  C      110.495     -57.278     -31.795
  N      115.226     -57.758     -29.918
  C      114.016     -57.961     -29.281
  N      114.085     -58.298     -27.975
  N      112.859     -57.828     -29.875
  C      112.950     -57.392     -31.151
  C      114.089     -57.137     -31.881
  C      115.367     -57.359     -31.239
  O      116.465     -57.209     -31.764
  N      113.790     -56.668     -33.137
  C      112.476     -56.558     -33.132
  N      111.918     -57.060     -31.980
  O      108.815     -54.589     -36.733
  O      110.858     -53.121     -36.309
  H      108.419     -56.333     -29.455
  H      108.468     -53.712     -36.976
  H      116.084     -57.905     -29.418
  H      111.879     -56.167     -33.947
  H      110.373     -58.320     -31.475
  H      110.603     -55.804     -30.143
  H      114.942     -58.330     -27.449
  H      109.851     -54.524     -31.962
  H      113.223     -58.270     -27.425
  H      107.820     -56.717     -32.682
  H      108.476     -56.010     -35.008
  H      107.704     -54.713     -34.099
  P      108.107     -53.214     -30.457
  C      105.713     -52.611     -31.349
  O      106.615     -52.684     -30.267
  O      108.624     -52.411     -31.740
  O      108.974     -52.980     -29.263
  H      109.583     -52.243     -31.678
  H      104.774     -52.231     -31.005
  H      105.573     -53.588     -31.763
  H      106.108     -51.959     -32.100

 6  7  8  9  10  11  12  13  14  15  26  29  33  34 0
 6-311+G(2d,p)
 ****
 36  38  39  40  41 0
 6-311+G(2d,p)
 ****
 1  2  3  4  5  16  17  18  19  20  21  22  23  24  25 0
 3-21G
 ****
 27  28  30  31  32  35  37  42  43  44  45  46  47 0
 3-21G
 ****
 48  49 0
 3-21G
 ****


