%nproc=1
%NoSave
%Mem=1900MB
#P OB98/GEN NMR

erre ene a

0 1
  C      133.264      -3.007      82.456
  O      133.822      -1.725      82.251
  H      132.175      -2.941      82.508
  H      133.537      -3.650      81.614
  H      133.655      -3.448      83.378
  P      133.508      -0.614      83.365
  C      135.504      -1.496      84.782
  O      134.115      -1.205      84.730
  C      135.883      -1.889      86.205
  O      137.250      -2.358      86.244
  C      135.811      -0.738      87.201
  O      134.496      -0.508      87.674
  C      136.711      -1.264      88.307
  O      136.006      -2.252      89.079
  C      137.840      -1.923      87.499
  N      141.757       0.671      89.530
  C      140.864      -0.185      90.073
  N      139.865      -0.851      89.460
  C      139.841      -0.570      88.148
  C      140.689       0.276      87.452
  C      141.686       0.921      88.202
  N      142.578       1.819      87.659
  N      140.338       0.326      86.118
  C      139.309      -0.489      86.010
  N      138.950      -1.030      87.215
  O      131.928      -0.739      83.592
  O      133.945       0.775      83.044
  H      135.328      -1.778      89.597
  H      131.593       0.036      84.082
  H      140.965      -0.354      91.141
  H      138.785      -0.712      85.089
  H      138.253      -2.807      87.998
  H      137.030      -0.482      89.000
  H      136.251       0.178      86.789
  H      135.238      -2.720      86.517
  H      136.067      -0.605      84.484
  H      143.156       2.339      88.301
  H      142.441       2.123      86.707
  H      135.730      -2.314      84.092
  P      134.247       0.808      88.562
  C      134.883       2.220      86.476
  O      135.083       1.989      87.866
  O      135.078       0.504      89.893
  O      132.811       1.105      88.844
  H      134.653       0.916      90.670
  H      135.503       3.031      86.156
  H      133.856       2.465      86.299
  H      135.139       1.338      85.927

 6  7  8  9  10  11  12  13  14  15  25  28  32  33  34  35 0
 6-311+G(2d,p)
 ****
 36  39  40 0
 6-311+G(2d,p)
 ****
 1  2  3  4  5  16  17  18  19  20  21  22  23  24 0
 3-21G
 ****
 26  27  29  30  31  37  38  41  42  43  44  45  46  47 0
 3-21G
 ****
 48 0
 3-21G
 ****


