%nproc=1
%NoSave
%Mem=1900MB
#P OB98/GEN NMR

erre ene a

0 1
  C     -336.971    -252.941    -166.282
  O     -336.807    -254.011    -165.378
  P     -335.902    -255.280    -165.746
  C     -333.721    -254.005    -165.230
  O     -334.473    -254.709    -166.215
  C     -332.268    -253.834    -165.690
  O     -331.525    -253.128    -164.647
  C     -331.559    -255.184    -165.947
  O     -330.940    -255.293    -167.230
  C     -330.625    -255.299    -164.752
  O     -329.541    -256.184    -164.961
  C     -330.277    -253.835    -164.485
  N     -329.691    -253.625    -163.165
  C     -328.314    -253.807    -163.044
  O     -327.572    -254.105    -163.971
  N     -327.804    -253.679    -161.783
  C     -328.524    -253.516    -160.632
  O     -328.007    -253.514    -159.528
  C     -329.977    -253.374    -160.821
  C     -330.487    -253.410    -162.051
  O     -336.514    -256.250    -166.697
  O     -335.553    -255.904    -164.311
  H     -329.187    -256.435    -164.085
  H     -335.078    -255.306    -163.710
  H     -326.806    -253.807    -161.676
  H     -330.576    -253.254    -159.930
  H     -331.555    -253.311    -162.220
  H     -329.582    -253.440    -165.233
  H     -331.206    -255.696    -163.913
  H     -332.276    -256.011    -165.927
  H     -332.270    -253.215    -166.592
  H     -333.739    -254.574    -164.298
  H     -334.188    -253.031    -165.033
  P     -331.355    -256.342    -168.362
  C     -333.464    -254.977    -169.050
  O     -332.935    -256.211    -168.607
  O     -330.864    -257.733    -168.154
  O     -330.726    -255.713    -169.697
  H     -330.516    -256.427    -170.326
  H     -334.489    -254.887    -168.688
  H     -333.467    -254.957    -170.139
  H     -332.882    -254.127    -168.669
  H     -337.608    -252.200    -165.846
  H     -337.412    -253.303    -167.187
  H     -336.017    -252.508    -166.499

 3  4  5  6  7  8  9  10  11  12  13  23  28  29  30  31  32 0
 6-311+G(2d,p)
 ****
 33  34 0
 6-311+G(2d,p)
 ****
 1  2  14  15  16  17  18  19  20  21  22  24  25  26  27 0
 3-21G
 ****
 35  36  37  38  39  40  41  42  43  44  45 0
 3-21G
 ****


