%nproc=1
%NoSave
%Mem=1900MB
#P OB98/GEN NMR

erre ene a

0 1
  C     -134.567     132.710     132.566
  O     -134.519     131.321     132.822
  P     -134.644     130.782     134.326
  C     -133.325     131.105     136.507
  O     -133.273     131.124     135.083
  C     -132.065     131.744     137.091
  O     -131.761     132.975     136.405
  C     -132.184     132.113     138.567
  O     -132.069     130.967     139.384
  C     -131.046     133.116     138.709
  O     -129.793     132.438     138.881
  C     -131.083     133.833     137.350
  N     -130.684     138.647     138.997
  C     -129.926     137.550     139.221
  N     -130.122     136.291     138.776
  C     -131.248     136.216     138.049
  C     -132.139     137.240     137.765
  C     -131.810     138.515     138.254
  N     -132.544     139.649     137.981
  N     -133.196     136.760     137.012
  C     -132.950     135.478     136.856
  N     -131.751     135.117     137.409
  O     -135.105     129.367     134.460
  O     -135.690     131.786     135.003
  H     -129.834     131.961     139.732
  H     -136.470     131.284     135.307
  H     -129.041     137.708     139.830
  H     -133.591     134.778     136.339
  H     -130.077     134.007     136.954
  H     -131.176     133.781     139.566
  H     -133.140     132.623     138.747
  H     -131.228     131.051     136.932
  H     -133.400     130.064     136.834
  H     -132.138     140.532     138.258
  H     -133.192     139.628     137.200
  H     -134.214     131.646     136.844
  P     -132.147     131.115     140.977
  C     -131.269     132.913     142.582
  O     -131.019     132.172     141.403
  O     -132.144     129.834     141.745
  O     -133.507     131.929     141.214
  H     -133.905     131.656     142.061
  H     -131.986     133.713     142.365
  H     -130.335     133.357     142.921
  H     -131.666     132.269     143.371
  H     -134.469     132.882     131.515
  H     -133.766     133.196     133.084
  H     -135.502     133.103     132.906

 3  4  5  6  7  8  9  10  11  12  22  25  29  30  31  32 0
 6-311+G(2d,p)
 ****
 33  36  37 0
 6-311+G(2d,p)
 ****
 1  2  13  14  15  16  17  18  19  20  21  23  24  26 0
 3-21G
 ****
 27  28  34  35  38  39  40  41  42  43  44  45  46  47  48 0
 3-21G
 ****


