%nproc=1
%NoSave
%Mem=1900MB
#P OB98/GEN NMR

erre ene a

0 1
  C      253.670      -4.698      10.873
  O      252.614      -3.766      10.747
  H      253.335      -5.680      10.529
  H      254.503      -4.372      10.246
  H      254.012      -4.759      11.909
  P      251.409      -3.874      11.800
  C      249.764      -5.773      12.451
  O      250.639      -5.247      11.465
  C      249.290      -7.171      12.052
  O      248.345      -7.044      10.950
  C      250.416      -8.115      11.599
  O      250.131      -9.433      12.090
  C      250.280      -8.117      10.085
  O      250.796      -9.298       9.484
  C      248.769      -7.952       9.923
  N      248.171      -9.301       5.051
  C      248.220     -10.027       6.191
  N      248.329      -9.582       7.459
  C      248.316      -8.237       7.492
  C      248.271      -7.364       6.421
  C      248.209      -7.949       5.143
  N      248.229      -7.224       3.973
  N      248.338      -6.053       6.859
  C      248.455      -6.142       8.174
  N      248.447      -7.438       8.600
  O      250.397      -2.740      11.284
  O      251.784      -3.679      13.231
  H      250.614     -10.057      10.073
  H      250.631      -1.885      11.690
  H      248.178     -11.107       6.065
  H      248.576      -5.302       8.847
  H      248.228      -8.897      10.046
  H      250.817      -7.260       9.670
  H      251.412      -7.806      11.930
  H      248.739      -7.606      12.897
  H      248.890      -5.117      12.548
  H      248.295      -7.734       3.106
  H      248.368      -6.223       4.024
  H      250.284      -5.807      13.418
  P      250.849      -9.882      13.455
  C      253.103     -11.011      14.112
  O      252.351     -10.332      13.114
  O      250.123     -11.258      13.811
  O      250.722      -8.885      14.561
  H      250.066     -11.371      14.782
  H      254.076     -11.240      13.731
  H      252.602     -11.918      14.381
  H      253.196     -10.386      14.975

 6  7  8  9  10  11  12  13  14  15  25  28  32  33  34  35 0
 6-311+G(2d,p)
 ****
 36  39  40 0
 6-311+G(2d,p)
 ****
 1  2  3  4  5  16  17  18  19  20  21  22  23  24 0
 3-21G
 ****
 26  27  29  30  31  37  38  41  42  43  44  45  46  47 0
 3-21G
 ****
 48 0
 3-21G
 ****


