%nproc=1
%NoSave
%Mem=1900MB
#P OB98/GEN NMR

erre ene a

0 1
  C      -36.354    -148.818       4.038
  O      -37.288    -148.805       5.113
  P      -36.980    -149.575       6.486
  C      -38.043    -147.882       8.110
  O      -36.826    -148.426       7.589
  C      -37.795    -146.471       8.641
  O      -37.540    -145.593       7.513
  C      -38.974    -145.827       9.387
  O      -39.067    -146.182      10.760
  C      -38.605    -144.352       9.268
  O      -37.587    -144.021      10.235
  C      -38.034    -144.274       7.854
  N      -40.028    -140.297       5.306
  C      -39.011    -140.386       6.209
  N      -38.552    -141.481       6.849
  C      -39.224    -142.573       6.458
  C      -40.281    -142.638       5.555
  C      -40.681    -141.428       4.966
  N      -41.700    -141.347       4.034
  N      -40.733    -143.949       5.430
  C      -39.957    -144.645       6.228
  N      -39.031    -143.865       6.868
  O      -35.857    -150.558       6.406
  O      -38.378    -150.258       6.874
  H      -37.949    -144.251      11.115
  H      -38.233    -150.960       7.540
  H      -38.507    -139.448       6.440
  H      -40.027    -145.713       6.378
  H      -37.185    -143.578       7.779
  H      -39.455    -143.686       9.461
  H      -39.922    -146.006       8.863
  H      -36.896    -146.488       9.272
  H      -38.381    -148.527       8.928
  H      -41.827    -140.465       3.567
  H      -42.070    -142.208       3.660
  H      -38.814    -147.884       7.328
  P      -40.436    -146.860      11.247
  C      -39.343    -148.871      12.529
  O      -40.116    -148.419      11.427
  O      -41.631    -146.538      10.401
  O      -40.565    -146.330      12.761
  H      -39.898    -146.673      13.374
  H      -39.382    -149.965      12.552
  H      -39.750    -148.483      13.480
  H      -38.306    -148.549      12.410
  H      -36.745    -148.250       3.219
  H      -36.185    -149.827       3.724
  H      -35.430    -148.386       4.363

 3  4  5  6  7  8  9  10  11  12  22  25  29  30  31  32 0
 6-311+G(2d,p)
 ****
 33  36  37 0
 6-311+G(2d,p)
 ****
 1  2  13  14  15  16  17  18  19  20  21  23  24  26 0
 3-21G
 ****
 27  28  34  35  38  39  40  41  42  43  44  45  46  47  48 0
 3-21G
 ****


