%nproc=1
%NoSave
%Mem=1900MB
#P OB98/GEN NMR

erre ene a

0 1
  C     -366.402    -624.046     339.456
  O     -365.462    -624.462     340.435
  P     -364.237    -623.474     340.747
  C     -362.765    -624.329     338.776
  O     -362.917    -624.187     340.186
  C     -361.339    -624.763     338.447
  O     -360.412    -623.706     338.753
  C     -360.847    -625.977     339.226
  O     -361.410    -627.172     338.715
  C     -359.338    -625.845     339.022
  O     -358.970    -626.333     337.725
  C     -359.139    -624.317     339.098
  N     -357.889    -620.236     341.935
  C     -358.210    -620.363     340.624
  N     -358.512    -621.489     339.941
  C     -358.471    -622.565     340.737
  C     -358.141    -622.595     342.086
  C     -357.839    -621.362     342.697
  N     -357.519    -621.242     344.025
  N     -358.174    -623.884     342.573
  C     -358.531    -624.622     341.536
  N     -358.732    -623.871     340.415
  O     -364.070    -623.592     342.337
  O     -364.440    -622.059     340.310
  H     -357.992    -626.305     337.674
  H     -363.788    -622.738     342.718
  H     -358.231    -619.442     340.054
  H     -358.657    -625.696     341.557
  H     -358.394    -623.955     338.382
  H     -358.756    -626.408     339.764
  H     -361.090    -625.869     340.292
  H     -361.285    -624.956     337.364
  H     -362.961    -623.370     338.289
  H     -357.175    -620.346     344.338
  H     -357.340    -622.085     344.551
  H     -363.494    -625.060     338.417
  P     -362.368    -628.011     339.702
  C     -360.632    -628.383     341.556
  O     -361.359    -628.976     340.492
  O     -363.082    -629.012     338.678
  O     -363.276    -627.181     340.545
  H     -362.447    -629.452     338.095
  H     -360.025    -629.157     342.035
  H     -361.305    -627.948     342.293
  H     -359.960    -627.605     341.165
  H     -367.160    -624.794     339.349
  H     -365.904    -623.907     338.519
  H     -366.851    -623.124     339.762

 3  4  5  6  7  8  9  10  11  12  22  25  29  30  31  32 0
 6-311+G(2d,p)
 ****
 33  36  37 0
 6-311+G(2d,p)
 ****
 1  2  13  14  15  16  17  18  19  20  21  23  24  26 0
 3-21G
 ****
 27  28  34  35  38  39  40  41  42  43  44  45  46  47  48 0
 3-21G
 ****


