%nproc=1
%NoSave
%Mem=1900MB
#P OB98/GEN NMR

erre ene a

0 1
  C     -588.546    -682.592    -447.399
  O     -589.850    -682.080    -447.210
  H     -588.363    -682.716    -448.469
  H     -588.467    -683.574    -446.919
  H     -587.790    -681.911    -446.989
  P     -590.303    -681.648    -445.727
  C     -590.138    -682.682    -443.381
  O     -590.026    -682.899    -444.772
  C     -591.110    -683.712    -442.772
  O     -590.802    -685.024    -443.296
  C     -590.989    -683.848    -441.250
  O     -591.613    -682.774    -440.588
  C     -591.651    -685.198    -441.038
  O     -593.080    -685.077    -441.024
  C     -591.175    -685.983    -442.266
  N     -590.085    -686.905    -441.978
  C     -590.316    -687.864    -441.007
  O     -591.395    -687.983    -440.415
  N     -589.245    -688.663    -440.693
  C     -587.975    -688.504    -441.136
  O     -587.012    -689.071    -440.643
  C     -587.798    -687.505    -442.204
  C     -588.834    -686.754    -442.576
  O     -591.672    -681.053    -445.614
  O     -589.169    -680.600    -445.284
  H     -589.523    -679.696    -445.358
  H     -593.420    -685.960    -440.758
  H     -589.410    -689.355    -439.954
  H     -586.807    -687.402    -442.640
  H     -588.702    -686.007    -443.334
  H     -592.019    -686.568    -442.701
  H     -591.340    -685.656    -440.096
  H     -589.934    -683.908    -440.968
  H     -592.124    -683.471    -443.064
  H     -590.564    -681.670    -443.210
  H     -589.169    -682.748    -442.910
  P     -591.133    -682.328    -439.119
  C     -590.923    -683.357    -436.773
  O     -591.302    -683.579    -438.143
  O     -591.710    -681.056    -438.613
  O     -589.536    -682.205    -439.284
  H     -589.256    -681.343    -438.887
  H     -591.075    -684.255    -436.211
  H     -591.521    -682.572    -436.360
  H     -589.891    -683.080    -436.729

 6  7  8  9  10  11  12  13  14  15  16  27  31  32  33  34  35 0
 6-311+G(2d,p)
 ****
 36  37 0
 6-311+G(2d,p)
 ****
 1  2  3  4  5  17  18  19  20  21  22  23  24  25 0
 3-21G
 ****
 26  28  29  30  38  39  40  41  42  43  44  45 0
 3-21G
 ****


