%nproc=1
%NoSave
%Mem=1900MB
#P OB98/GEN NMR

erre ene a

0 1
  C     -316.021    -230.881    -129.711
  O     -316.684    -231.083    -130.944
  H     -316.710    -230.391    -129.017
  H     -315.148    -230.237    -129.853
  H     -315.711    -231.839    -129.287
  P     -315.810    -231.739    -132.120
  C     -316.063    -234.075    -131.026
  O     -315.173    -233.082    -131.513
  C     -315.313    -235.374    -130.746
  O     -316.110    -236.260    -129.932
  C     -314.925    -236.156    -131.995
  O     -313.719    -235.660    -132.552
  C     -314.776    -237.562    -131.431
  O     -313.501    -237.724    -130.774
  C     -315.924    -237.620    -130.411
  N     -318.349    -241.791    -131.896
  C     -317.039    -241.617    -131.497
  N     -316.245    -242.711    -131.521
  N     -316.542    -240.469    -131.116
  C     -317.431    -239.451    -131.197
  C     -318.752    -239.493    -131.580
  C     -319.303    -240.782    -131.946
  O     -320.474    -241.016    -132.229
  N     -319.330    -238.252    -131.511
  C     -318.352    -237.456    -131.123
  N     -317.177    -238.137    -130.924
  O     -314.550    -230.757    -132.242
  O     -316.506    -231.886    -133.429
  H     -313.435    -238.630    -130.424
  H     -314.310    -230.671    -133.183
  H     -318.683    -242.703    -132.150
  H     -318.444    -236.391    -130.962
  H     -315.665    -238.237    -129.540
  H     -314.817    -238.317    -132.216
  H     -316.478    -243.529    -132.066
  H     -315.735    -236.147    -132.735
  H     -315.269    -242.564    -131.298
  H     -314.420    -235.119    -130.161
  H     -316.838    -234.257    -131.779
  H     -316.535    -233.715    -130.106
  P     -313.235    -236.248    -133.961
  C     -314.504    -234.544    -135.454
  O     -314.357    -235.900    -135.054
  O     -313.386    -237.829    -133.757
  O     -311.837    -235.890    -134.339
  H     -312.507    -238.234    -133.640
  H     -315.285    -234.469    -136.182
  H     -313.586    -234.196    -135.879
  H     -314.752    -233.946    -134.602

 6  7  8  9  10  11  12  13  14  15  26  29  33  34 0
 6-311+G(2d,p)
 ****
 36  38  39  40  41 0
 6-311+G(2d,p)
 ****
 1  2  3  4  5  16  17  18  19  20  21  22  23  24  25 0
 3-21G
 ****
 27  28  30  31  32  35  37  42  43  44  45  46  47 0
 3-21G
 ****
 48  49 0
 3-21G
 ****


