%nproc=1
%NoSave
%Mem=1900MB
#P OB98/GEN NMR

erre ene a

0 1
  C      192.249      64.096     110.566
  O      191.724      65.270     111.166
  P      190.798      65.117     112.466
  C      188.744      66.230     111.257
  O      189.276      65.113     111.951
  C      187.901      67.093     112.204
  O      187.581      68.345     111.538
  C      186.572      66.450     112.636
  O      186.323      66.859     113.989
  C      185.567      67.087     111.692
  O      184.241      67.044     112.192
  C      186.145      68.504     111.573
  N      185.683      69.224     110.384
  C      184.508      69.967     110.486
  O      183.826      70.033     111.516
  N      184.114      70.619     109.344
  C      184.722      70.555     108.129
  O      184.316      71.146     107.138
  C      185.931      69.721     108.065
  C      186.356      69.109     109.177
  O      190.979      66.555     113.147
  O      191.165      63.959     113.331
  H      191.056      67.272     112.497
  H      183.970      66.111     112.253
  H      183.284      71.192     109.412
  H      186.434      69.629     107.107
  H      187.244      68.489     109.154
  H      185.909      69.086     112.470
  H      185.588      66.562     110.730
  H      186.595      65.355     112.574
  H      188.512      67.337     113.083
  H      188.117      65.879     110.437
  H      189.569      66.814     110.829
  P      186.771      65.865     115.175
  C      184.429      64.971     115.941
  O      185.653      64.721     115.289
  O      186.461      66.796     116.452
  O      188.196      65.415     115.119
  H      185.578      67.201     116.416
  H      183.698      64.217     115.625
  H      184.036      65.961     115.688
  H      184.563      64.894     117.023
  H      192.841      64.364     109.716
  H      191.444      63.464     110.255
  H      192.858      63.575     111.275

 3  4  5  6  7  8  9  10  11  12  13  24  28  29  30  31  32 0
 6-311+G(2d,p)
 ****
 33  34 0
 6-311+G(2d,p)
 ****
 1  2  14  15  16  17  18  19  20  21  22  23  25  26  27 0
 3-21G
 ****
 35  36  37  38  39  40  41  42  43  44  45 0
 3-21G
 ****


