%nproc=1
%NoSave
%Mem=1900MB
#P OB98/GEN NMR

erre ene a

0 1
  C      176.291     264.645    1423.922
  O      175.169     264.390    1423.048
  P      175.256     263.423    1421.785
  C      173.462     261.612    1422.211
  O      174.849     261.935    1422.224
  C      173.218     260.152    1421.729
  O      173.729     259.977    1420.394
  C      173.923     259.089    1422.573
  O      173.218     258.892    1423.800
  C      173.884     257.907    1421.619
  O      172.614     257.236    1421.644
  C      174.109     258.588    1420.245
  N      175.478     258.456    1419.776
  C      175.897     257.163    1419.422
  O      175.142     256.207    1419.581
  N      177.173     257.002    1418.922
  C      177.952     258.015    1418.848
  N      179.215     257.789    1418.334
  C      177.591     259.380    1419.293
  C      176.344     259.541    1419.721
  O      176.563     263.501    1421.034
  O      174.041     263.853    1420.831
  H      172.549     256.829    1422.538
  H      174.305     263.686    1419.899
  H      178.307     260.189    1419.247
  H      175.982     260.495    1420.056
  H      173.422     258.176    1419.494
  H      174.654     257.143    1421.861
  H      174.971     259.382    1422.773
  H      172.138     259.990    1421.700
  H      179.422     256.843    1418.052
  H      172.963     262.290    1421.524
  H      179.915     258.516    1418.225
  H      173.050     261.762    1423.201
  P      174.026     258.492    1425.135
  C      172.633     260.281    1426.357
  O      173.943     259.742    1426.135
  O      175.418     257.960    1424.899
  O      173.107     257.391    1425.834
  H      173.683     256.765    1426.307
  H      172.633     260.809    1427.310
  H      171.885     259.481    1426.359
  H      172.412     260.993    1425.543
  H      175.994     265.322    1424.695
  H      177.092     265.076    1423.358
  H      176.618     263.725    1424.360

 3  4  5  6  7  8  9  10  11  12  13  23  27  28  29  30  32 0
 6-311+G(2d,p)
 ****
 34  35 0
 6-311+G(2d,p)
 ****
 1  2  14  15  16  17  18  19  20  21  22  24  25  26 0
 3-21G
 ****
 31  33  36  37  38  39  40  41  42  43  44  45  46 0
 3-21G
 ****


