%nproc=1
%NoSave
%Mem=1900MB
#P OB98/GEN NMR

erre ene a

0 1
  C      166.710     569.886     552.592
  O      166.029     571.070     552.978
  P      166.229     571.708     554.447
  C      166.300     574.173     553.658
  O      167.032     573.073     554.191
  C      167.189     574.991     552.727
  O      167.396     574.272     551.485
  C      166.619     576.346     552.326
  O      166.748     577.283     553.386
  C      167.440     576.645     551.076
  O      168.737     577.147     551.443
  C      167.574     575.246     550.436
  N      166.625     575.029     549.345
  C      167.146     575.077     548.053
  O      168.348     575.287     547.849
  N      166.299     574.851     546.988
  C      165.034     574.627     547.203
  N      164.251     574.345     546.124
  C      164.435     574.621     548.554
  C      165.284     574.823     549.565
  O      166.861     570.794     555.441
  O      164.779     572.224     554.858
  H      169.265     577.177     550.624
  H      164.227     571.540     555.320
  H      163.380     574.432     548.686
  H      164.930     574.815     550.591
  H      168.597     575.103     550.049
  H      166.965     577.385     550.415
  H      165.555     576.253     552.057
  H      168.176     575.122     553.216
  H      164.737     574.179     545.254
  H      165.963     574.800     554.487
  H      163.361     573.879     546.234
  H      165.418     573.783     553.120
  P      165.413     578.061     553.844
  C      165.983     578.000     556.375
  O      165.114     577.576     555.339
  O      164.266     577.380     552.960
  O      165.477     579.549     553.651
  H      164.042     577.951     552.199
  H      165.517     577.787     557.339
  H      166.175     579.080     556.303
  H      166.929     577.452     556.311
  H      166.442     569.632     551.588
  H      166.435     569.087     553.248
  H      167.766     570.047     552.649

 3  4  5  6  7  8  9  10  11  12  13  23  27  28  29  30  32 0
 6-311+G(2d,p)
 ****
 34  35 0
 6-311+G(2d,p)
 ****
 1  2  14  15  16  17  18  19  20  21  22  24  25  26 0
 3-21G
 ****
 31  33  36  37  38  39  40  41  42  43  44  45  46 0
 3-21G
 ****


