%nproc=1
%NoSave
%Mem=1900MB
#P OB98/GEN NMR

erre ene a

0 1
  C     -159.871     278.431      27.806
  O     -159.329     279.643      27.316
  P     -157.834     280.044      27.753
  C     -156.587     278.657      25.896
  O     -156.881     278.845      27.266
  C     -155.076     278.744      25.658
  O     -154.414     277.719      26.452
  C     -154.645     278.539      24.193
  O     -153.514     279.391      23.962
  C     -154.235     277.075      24.165
  O     -153.355     276.779      23.087
  C     -153.599     276.934      25.554
  N     -153.525     275.547      26.014
  C     -152.509     274.742      25.497
  O     -151.693     275.124      24.661
  N     -152.481     273.446      25.957
  C     -153.382     272.877      26.810
  O     -153.320     271.706      27.173
  C     -154.457     273.757      27.286
  C     -154.475     275.030      26.882
  O     -157.915     279.861      29.338
  O     -157.414     281.398      27.289
  H     -158.486     279.121      29.610
  H     -152.524     277.267      23.235
  H     -151.732     272.859      25.623
  H     -155.200     273.333      27.952
  H     -155.255     275.701      27.222
  H     -152.595     277.378      25.562
  H     -155.127     276.453      24.067
  H     -155.448     278.784      23.492
  H     -154.722     279.716      26.029
  H     -157.081     279.441      25.306
  H     -156.977     277.688      25.566
  P     -153.293     279.981      22.480
  C     -155.326     281.596      22.810
  O     -154.682     280.629      22.016
  O     -153.240     278.613      21.642
  O     -152.067     280.810      22.305
  H     -153.968     278.006      21.855
  H     -156.042     282.150      22.193
  H     -154.611     282.311      23.232
  H     -155.868     281.105      23.624
  H     -160.865     278.307      27.429
  H     -159.896     278.458      28.875
  H     -159.262     277.612      27.484

 3  4  5  6  7  8  9  10  11  12  13  24  28  29  30  31  32 0
 6-311+G(2d,p)
 ****
 33  34 0
 6-311+G(2d,p)
 ****
 1  2  14  15  16  17  18  19  20  21  22  23  25  26  27 0
 3-21G
 ****
 35  36  37  38  39  40  41  42  43  44  45 0
 3-21G
 ****


