%nproc=1
%NoSave
%Mem=1900MB
#P OB98/GEN NMR

erre ene a

0 1
  C      -51.583      -6.344     -16.547
  O      -52.210      -5.088     -16.697
  H      -51.642      -6.879     -17.498
  H      -52.086      -6.939     -15.780
  H      -50.529      -6.214     -16.287
  P      -52.360      -4.152     -15.401
  C      -54.152      -4.321     -13.538
  O      -53.259      -5.021     -14.389
  C      -54.436      -5.142     -12.282
  O      -53.218      -5.436     -11.568
  C      -55.330      -4.453     -11.256
  O      -56.696      -4.410     -11.634
  C      -55.088      -5.349     -10.052
  O      -55.820      -6.577     -10.211
  C      -53.563      -5.595     -10.163
  N      -52.776      -4.682      -9.337
  C      -52.729      -4.960      -7.965
  O      -53.329      -5.930      -7.503
  N      -52.033      -4.110      -7.140
  C      -51.452      -3.064      -7.638
  N      -50.815      -2.228      -6.770
  C      -51.461      -2.742      -9.077
  C      -52.138      -3.580      -9.861
  O      -52.838      -2.757     -15.645
  O      -50.926      -4.218     -14.695
  H      -55.544      -6.966     -11.060
  H      -50.963      -3.644     -13.891
  H      -50.967      -1.853      -9.439
  H      -52.205      -3.401     -10.928
  H      -53.315      -6.626      -9.886
  H      -55.407      -4.899      -9.108
  H      -54.958      -3.449     -11.025
  H      -54.859      -6.102     -12.604
  H      -50.866      -2.457      -5.787
  H      -55.073      -4.127     -14.096
  H      -50.587      -1.274      -7.030
  H      -53.713      -3.367     -13.234
  P      -57.752      -3.829     -10.572
  C      -58.837      -4.780      -8.402
  O      -57.773      -4.854      -9.338
  O      -59.156      -4.077     -11.294
  O      -57.553      -2.400     -10.176
  H      -59.440      -3.286     -11.792
  H      -58.701      -5.527      -7.648
  H      -59.767      -4.946      -8.905
  H      -58.845      -3.811      -7.947

 6  7  8  9  10  11  12  13  14  15  16  26  30  31  32  33  35 0
 6-311+G(2d,p)
 ****
 37  38 0
 6-311+G(2d,p)
 ****
 1  2  3  4  5  17  18  19  20  21  22  23  24  25 0
 3-21G
 ****
 27  28  29  34  36  39  40  41  42  43  44  45  46 0
 3-21G
 ****


