%nproc=1
%NoSave
%Mem=1900MB
#P OB98/GEN NMR

erre ene a

0 1
  C     -471.489    -760.212     260.985
  O     -472.021    -759.792     262.237
  P     -471.150    -760.097     263.555
  C     -473.195    -761.190     264.735
  O     -471.857    -761.354     264.259
  C     -473.629    -762.414     265.546
  O     -473.428    -763.619     264.762
  C     -472.847    -762.636     266.819
  O     -473.350    -761.836     267.897
  C     -473.140    -764.109     267.087
  O     -474.445    -764.248     267.664
  C     -473.117    -764.699     265.688
  N     -470.190    -768.891     266.016
  C     -471.411    -768.600     266.546
  N     -472.114    -767.445     266.409
  C     -471.430    -766.539     265.686
  C     -470.177    -766.682     265.125
  C     -469.547    -767.937     265.296
  N     -468.322    -768.251     264.733
  N     -469.799    -765.559     264.448
  C     -470.830    -764.716     264.605
  N     -471.841    -765.279     265.333
  O     -471.526    -758.872     264.525
  O     -469.676    -760.209     263.331
  H     -474.588    -765.211     267.825
  H     -470.822    -758.733     265.165
  H     -471.872    -769.374     267.129
  H     -470.866    -763.717     264.193
  H     -473.889    -765.477     265.556
  H     -472.431    -764.566     267.795
  H     -471.770    -762.502     266.678
  H     -474.714    -762.336     265.750
  H     -473.868    -761.068     263.880
  H     -468.038    -769.212     264.755
  H     -467.943    -767.620     264.037
  H     -473.245    -760.293     265.361
  P     -472.420    -761.708     269.189
  C     -473.950    -762.656     271.057
  O     -472.867    -762.889     270.163
  O     -472.974    -760.389     269.908
  O     -470.945    -761.616     268.902
  H     -472.279    -759.972     270.461
  H     -474.338    -763.635     271.405
  H     -474.767    -762.120     270.563
  H     -473.606    -762.090     271.926
  H     -472.168    -759.946     260.202
  H     -471.352    -761.273     260.994
  H     -470.547    -759.732     260.819

 3  4  5  6  7  8  9  10  11  12  22  25  29  30  31  32 0
 6-311+G(2d,p)
 ****
 33  36  37 0
 6-311+G(2d,p)
 ****
 1  2  13  14  15  16  17  18  19  20  21  23  24  26 0
 3-21G
 ****
 27  28  34  35  38  39  40  41  42  43  44  45  46  47  48 0
 3-21G
 ****


