%nproc=1
%NoSave
%Mem=1900MB
#P OB98/GEN NMR

erre ene a

0 1
  C       99.117    -394.441      66.613
  O      100.482    -394.803      66.617
  H       98.692    -394.554      67.613
  H       99.031    -393.394      66.311
  H       98.562    -395.062      65.901
  P      100.831    -396.314      67.027
  C      100.328    -397.737      69.143
  O      100.475    -396.436      68.588
  C       99.682    -397.635      70.519
  O       98.425    -396.927      70.431
  C       99.353    -398.980      71.159
  O      100.483    -399.573      71.775
  C       98.326    -398.552      72.193
  O       98.991    -397.947      73.317
  C       97.524    -397.497      71.419
  N       92.558    -396.790      70.421
  C       93.438    -396.076      71.150
  N       94.744    -396.335      71.372
  C       95.118    -397.462      70.745
  C       94.328    -398.298      69.973
  C       92.984    -397.918      69.810
  N       92.077    -398.654      69.079
  N       95.058    -399.382      69.524
  C       96.275    -399.183      69.991
  N       96.358    -398.042      70.744
  O      102.430    -396.348      67.017
  O      100.233    -397.375      66.164
  H       99.622    -398.610      73.657
  H      102.746    -397.267      66.931
  H       93.043    -395.183      71.622
  H       97.123    -399.830      69.814
  H       97.177    -396.679      72.060
  H       97.735    -399.383      72.579
  H       98.880    -399.664      70.444
  H      100.349    -397.049      71.166
  H      101.312    -398.201      69.237
  H       91.107    -398.398      69.178
  H       92.353    -399.568      68.748
  H       99.708    -398.343      68.474
  P      100.485    -401.170      71.936
  C       99.272    -402.846      73.511
  O       99.537    -401.484      73.186
  O      101.952    -401.478      72.489
  O      100.178    -401.921      70.682
  H      102.229    -402.384      72.249
  H       98.628    -402.890      74.364
  H      100.192    -403.345      73.733
  H       98.797    -403.325      72.680

 6  7  8  9  10  11  12  13  14  15  25  28  32  33  34  35 0
 6-311+G(2d,p)
 ****
 36  39  40 0
 6-311+G(2d,p)
 ****
 1  2  3  4  5  16  17  18  19  20  21  22  23  24 0
 3-21G
 ****
 26  27  29  30  31  37  38  41  42  43  44  45  46  47 0
 3-21G
 ****
 48 0
 3-21G
 ****


