%nproc=1
%NoSave
%Mem=1900MB
#P OB98/GEN NMR

erre ene a

0 1
  C     1344.395      35.493     195.303
  O     1345.379      35.068     194.383
  H     1344.882      36.068     196.094
  H     1343.904      34.629     195.744
  H     1343.653      36.130     194.809
  P     1344.851      34.386     193.028
  C     1346.059      32.086     193.016
  O     1346.029      33.415     192.516
  C     1346.421      31.107     191.895
  O     1345.297      30.942     190.991
  C     1347.593      31.553     191.026
  O     1348.842      31.227     191.629
  C     1347.351      30.718     189.785
  O     1347.763      29.363     190.015
  C     1345.823      30.796     189.636
  N     1342.354      32.254     186.244
  C     1342.535      31.032     186.869
  N     1341.666      30.045     186.533
  N     1343.482      30.772     187.730
  C     1344.274      31.849     187.975
  C     1344.198      33.106     187.425
  C     1343.144      33.375     186.468
  O     1342.919      34.438     185.911
  N     1345.181      33.939     187.922
  C     1345.866      33.169     188.743
  N     1345.348      31.895     188.813
  O     1344.878      35.589     191.968
  O     1343.493      33.766     193.112
  H     1347.221      29.022     190.755
  H     1344.117      35.487     191.356
  H     1341.611      32.383     185.567
  H     1346.716      33.484     189.319
  H     1345.391      29.876     189.224
  H     1347.912      31.085     188.911
  H     1340.950      30.160     185.832
  H     1347.536      32.621     190.773
  H     1341.753      29.150     186.999
  H     1346.621      30.134     192.349
  H     1345.071      31.828     193.413
  H     1346.804      32.022     193.818
  P     1350.025      32.309     191.531
  C     1351.377      30.764     189.930
  O     1351.345      31.482     191.171
  O     1350.247      32.733     193.067
  O     1349.726      33.493     190.662
  H     1350.661      33.616     193.109
  H     1352.318      30.264     189.831
  H     1351.250      31.449     189.118
  H     1350.587      30.043     189.915

 6  7  8  9  10  11  12  13  14  15  26  29  33  34 0
 6-311+G(2d,p)
 ****
 36  38  39  40  41 0
 6-311+G(2d,p)
 ****
 1  2  3  4  5  16  17  18  19  20  21  22  23  24  25 0
 3-21G
 ****
 27  28  30  31  32  35  37  42  43  44  45  46  47 0
 3-21G
 ****
 48  49 0
 3-21G
 ****


