%nproc=1
%NoSave
%Mem=1900MB
#P OB98/GEN NMR

erre ene a

0 1
  C      543.832    -352.967     -79.737
  O      544.031    -354.367     -79.543
  P      542.784    -355.295     -79.165
  C      543.032    -355.206     -76.593
  O      542.229    -354.882     -77.721
  C      542.305    -354.810     -75.301
  O      542.083    -353.379     -75.239
  C      540.917    -355.426     -75.189
  O      540.852    -356.823     -74.988
  C      540.254    -354.533     -74.152
  O      540.592    -354.931     -72.821
  C      540.873    -353.154     -74.478
  N      539.951    -352.276     -75.198
  C      539.541    -351.132     -74.516
  O      539.878    -350.877     -73.368
  N      538.687    -350.308     -75.201
  C      538.190    -350.523     -76.453
  O      537.408    -349.758     -77.008
  C      538.643    -351.761     -77.114
  C      539.487    -352.567     -76.465
  O      542.982    -356.762     -79.376
  O      541.634    -354.748     -80.150
  H      540.224    -354.263     -72.216
  H      541.138    -355.524     -80.488
  H      538.383    -349.470     -74.723
  H      538.265    -351.968     -78.108
  H      539.833    -353.484     -76.940
  H      541.174    -352.643     -73.562
  H      539.160    -354.567     -74.229
  H      540.392    -355.245     -76.142
  H      542.933    -355.084     -74.451
  H      543.989    -354.696     -76.660
  H      543.250    -356.278     -76.609
  P      540.283    -357.843     -76.077
  C      538.294    -358.797     -74.710
  O      538.711    -358.035     -75.822
  O      541.087    -359.073     -76.349
  O      540.290    -356.928     -77.399
  H      540.479    -357.496     -78.172
  H      537.198    -358.835     -74.707
  H      538.633    -358.326     -73.784
  H      538.679    -359.819     -74.780
  H      544.765    -352.505     -79.982
  H      543.444    -352.534     -78.839
  H      543.137    -352.813     -80.536

 3  4  5  6  7  8  9  10  11  12  13  23  28  29  30  31  32 0
 6-311+G(2d,p)
 ****
 33  34 0
 6-311+G(2d,p)
 ****
 1  2  14  15  16  17  18  19  20  21  22  24  25  26  27 0
 3-21G
 ****
 35  36  37  38  39  40  41  42  43  44  45 0
 3-21G
 ****


