%nproc=1
%NoSave
%Mem=1900MB
#P OB98/GEN NMR

erre ene a

0 1
  C       45.197     299.603     233.412
  O       45.568     298.272     233.704
  H       45.095     300.153     234.352
  H       44.237     299.619     232.892
  H       45.961     300.092     232.800
  P       45.932     297.317     232.464
  C       48.361     296.977     233.320
  O       47.130     296.367     232.952
  C       49.213     296.008     234.146
  O       48.523     295.728     235.391
  C       49.477     294.676     233.442
  O       50.822     294.263     233.744
  C       48.500     293.718     234.098
  O       48.927     292.359     234.031
  C       48.405     294.294     235.514
  N       47.156     293.905     236.169
  C       47.112     292.626     236.727
  O       48.089     291.876     236.646
  N       45.944     292.194     237.310
  C       44.888     292.948     237.264
  N       43.755     292.454     237.833
  C       44.873     294.283     236.624
  C       46.031     294.697     236.113
  O       46.646     298.308     231.432
  O       44.777     296.593     231.856
  H       48.854     292.058     233.101
  H       46.478     298.037     230.506
  H       43.962     294.863     236.590
  H       46.113     295.657     235.617
  H       49.246     293.944     236.132
  H       47.525     293.791     233.595
  H       49.348     294.726     232.357
  H       50.153     296.513     234.406
  H       43.800     291.529     238.244
  H       48.148     297.869     233.924
  H       42.866     292.935     237.813
  H       48.900     297.286     232.418
  P       51.655     293.603     232.542
  C       54.060     294.011     233.449
  O       53.045     293.061     233.138
  O       52.090     294.866     231.655
  O       50.875     292.611     231.740
  H       51.586     294.878     230.822
  H       54.919     293.502     233.833
  H       53.693     294.697     234.184
  H       54.330     294.547     232.563

 6  7  8  9  10  11  12  13  14  15  16  26  30  31  32  33  35 0
 6-311+G(2d,p)
 ****
 37  38 0
 6-311+G(2d,p)
 ****
 1  2  3  4  5  17  18  19  20  21  22  23  24  25 0
 3-21G
 ****
 27  28  29  34  36  39  40  41  42  43  44  45  46 0
 3-21G
 ****


