%nproc=1
%NoSave
%Mem=1900MB
#P OB98/GEN NMR

erre ene a

0 1
  C      -33.403     241.012    -384.414
  O      -33.906     240.374    -383.249
  P      -32.913     239.750    -382.166
  C      -30.926     238.036    -382.269
  O      -32.107     238.555    -382.848
  C      -30.578     236.712    -382.961
  O      -30.470     236.906    -384.389
  C      -29.249     236.149    -382.462
  O      -29.465     235.217    -381.415
  C      -28.660     235.530    -383.713
  O      -29.222     234.227    -383.945
  C      -29.133     236.519    -384.802
  N      -28.348     237.749    -385.020
  C      -27.504     237.844    -386.126
  O      -27.389     236.966    -386.970
  N      -26.766     238.999    -386.211
  C      -26.828     240.053    -385.345
  O      -26.000     240.960    -385.292
  C      -27.922     240.007    -384.368
  C      -28.604     238.871    -384.236
  O      -33.907     239.001    -381.159
  O      -32.035     240.732    -381.456
  H      -30.185     234.347    -384.059
  H      -34.076     239.547    -380.371
  H      -26.048     239.011    -386.930
  H      -28.098     240.879    -383.753
  H      -29.392     238.797    -383.493
  H      -29.221     236.021    -385.776
  H      -27.586     235.386    -383.614
  H      -28.593     236.968    -382.132
  H      -31.388     235.993    -382.780
  H      -31.070     237.882    -381.197
  H      -30.104     238.752    -382.389
  P      -28.281     234.905    -380.385
  C      -25.834     234.220    -380.723
  O      -27.141     234.180    -381.255
  O      -28.682     234.185    -379.139
  O      -27.673     236.352    -380.065
  H      -28.047     236.688    -379.224
  H      -25.198     233.550    -381.305
  H      -25.834     233.887    -379.678
  H      -25.436     235.232    -380.789
  H      -34.220     241.361    -385.010
  H      -32.821     240.315    -384.980
  H      -32.789     241.841    -384.130

 3  4  5  6  7  8  9  10  11  12  13  23  28  29  30  31  32 0
 6-311+G(2d,p)
 ****
 33  34 0
 6-311+G(2d,p)
 ****
 1  2  14  15  16  17  18  19  20  21  22  24  25  26  27 0
 3-21G
 ****
 35  36  37  38  39  40  41  42  43  44  45 0
 3-21G
 ****


