%nproc=1
%NoSave
%Mem=1900MB
#P OB98/GEN NMR

erre ene a

0 1
  C      403.315     -85.183    -241.716
  O      403.639     -86.298    -240.867
  P      404.189     -86.131    -239.368
  C      406.376     -87.497    -239.304
  O      405.000     -87.456    -238.954
  C      406.954     -88.915    -239.166
  O      407.218     -89.211    -237.754
  C      406.044     -90.027    -239.708
  O      406.901     -90.994    -240.335
  C      405.425     -90.584    -238.438
  O      404.873     -91.878    -238.589
  C      406.650     -90.520    -237.504
  N      406.357     -90.685    -236.079
  C      406.319     -91.995    -235.580
  O      406.476     -92.968    -236.305
  N      406.102     -92.162    -234.223
  C      405.911     -91.138    -233.462
  N      405.706     -91.385    -232.135
  C      405.919     -89.751    -233.950
  C      406.150     -89.594    -235.256
  O      403.134     -85.751    -238.379
  O      405.315     -84.996    -239.447
  H      405.293     -84.467    -238.635
  H      405.598     -92.482    -238.844
  H      405.766     -88.920    -233.278
  H      406.196     -88.605    -235.697
  H      407.384     -91.262    -237.824
  H      404.626     -89.905    -238.110
  H      405.311     -89.684    -240.443
  H      407.925     -88.932    -239.671
  H      405.712     -92.350    -231.829
  H      406.932     -86.823    -238.638
  H      405.559     -90.665    -231.450
  H      406.494     -87.134    -240.329
  P      407.407     -90.752    -241.842
  C      405.796     -92.374    -243.085
  O      407.110     -92.088    -242.674
  O      408.999     -90.809    -241.674
  O      407.001     -89.454    -242.472
  H      409.418     -90.294    -242.393
  H      405.809     -92.718    -244.125
  H      405.138     -91.505    -243.024
  H      405.380     -93.176    -242.460
  H      402.970     -85.544    -242.663
  H      404.187     -84.579    -241.860
  H      402.547     -84.596    -241.257

 3  4  5  6  7  8  9  10  11  12  13  24  27  28  29  30  32 0
 6-311+G(2d,p)
 ****
 34  35 0
 6-311+G(2d,p)
 ****
 1  2  14  15  16  17  18  19  20  21  22  23  25  26 0
 3-21G
 ****
 31  33  36  37  38  39  40  41  42  43  44  45  46 0
 3-21G
 ****


