%nproc=1
%NoSave
%Mem=1900MB
#P OB98/GEN NMR

erre ene a

0 1
  C     -334.116     156.954      43.051
  O     -333.745     156.626      41.725
  H     -334.913     157.705      43.018
  H     -333.258     157.370      43.586
  H     -334.487     156.067      43.573
  P     -332.611     155.502      41.560
  C     -330.801     157.268      42.213
  O     -331.374     155.990      42.464
  C     -329.301     157.245      42.526
  O     -329.131     157.244      43.977
  C     -328.575     155.998      41.993
  O     -327.215     156.351      41.698
  C     -328.601     155.080      43.201
  O     -327.668     154.035      43.054
  C     -328.322     156.098      44.307
  N     -326.843     152.929      48.019
  C     -326.274     153.270      46.844
  N     -326.726     154.131      45.909
  C     -327.886     154.686      46.305
  C     -328.591     154.437      47.470
  C     -328.026     153.505      48.357
  N     -328.613     153.135      49.544
  N     -329.756     155.182      47.503
  C     -329.752     155.874      46.378
  N     -328.641     155.608      45.625
  O     -332.097     155.725      40.059
  O     -333.050     154.098      41.803
  H     -327.718     153.412      43.805
  H     -332.588     155.138      39.450
  H     -325.324     152.784      46.625
  H     -330.517     156.565      46.054
  H     -327.269     156.418      44.317
  H     -329.588     154.620      43.332
  H     -329.046     155.573      41.100
  H     -328.842     158.166      42.155
  H     -331.306     158.003      42.843
  H     -330.948     157.528      41.158
  H     -328.159     152.436      50.110
  H     -329.514     153.530      49.792
  P     -326.817     156.735      40.182
  C     -324.520     155.568      39.748
  O     -325.923     155.574      39.531
  O     -325.737     157.901      40.416
  O     -327.938     157.235      39.332
  H     -325.923     158.650      39.812
  H     -324.085     154.730      39.245
  H     -324.322     155.497      40.797
  H     -324.096     156.473      39.366

 6  7  8  9  10  11  12  13  14  15  25  28  32  33  34  35 0
 6-311+G(2d,p)
 ****
 36  37  40 0
 6-311+G(2d,p)
 ****
 1  2  3  4  5  16  17  18  19  20  21  22  23  24 0
 3-21G
 ****
 26  27  29  30  31  38  39 41  42  43  44  45  46  47  48 0
 3-21G
 ****


