%nproc=1
%NoSave
%Mem=1900MB
#P OB98/GEN NMR

erre ene a

0 1
  C       14.338     -52.781     -26.759
  O       13.153     -53.317     -26.216
  H       14.982     -53.608     -27.070
  H       14.872     -52.195     -26.008
  H       14.118     -52.162     -27.632
  P       12.035     -52.322     -25.635
  C       11.021     -51.825     -27.939
  O       10.803     -52.421     -26.667
  C        9.904     -52.192     -28.917
  O       10.013     -51.368     -30.109
  C        9.933     -53.660     -29.366
  O        8.620     -54.218     -29.281
  C       10.359     -53.579     -30.824
  O        9.940     -54.705     -31.590
  C        9.749     -52.234     -31.228
  N       10.316     -51.726     -32.470
  C        9.736     -52.199     -33.651
  O        8.796     -52.994     -33.605
  N       10.266     -51.806     -34.851
  C       11.315     -51.045     -34.872
  N       11.808     -50.715     -36.095
  C       11.976     -50.545     -33.649
  C       11.427     -50.917     -32.494
  O       12.516     -50.939     -25.355
  O       11.463     -53.063     -24.336
  H        8.959     -54.735     -31.589
  H       11.051     -52.393     -23.742
  H       12.852     -49.917     -33.721
  H       11.843     -50.601     -31.544
  H        8.661     -52.315     -31.347
  H       11.454     -53.523     -30.878
  H       10.619     -54.274     -28.783
  H        8.942     -51.937     -28.455
  H       11.328     -51.086     -36.907
  H       11.991     -52.163     -28.322
  H       12.632     -50.151     -36.236
  H       11.042     -50.739     -27.813
  P        8.472     -55.552     -28.401
  C        7.674     -54.765     -26.062
  O        7.311     -55.307     -27.323
  O        9.814     -55.570     -27.530
  O        8.333     -56.792     -29.221
  H       10.396     -56.292     -27.832
  H        6.800     -54.659     -25.454
  H        8.128     -53.806     -26.203
  H        8.368     -55.421     -25.578

 6  7  8  9  10  11  12  13  14  15  16  26  30  31  32  33  35 0
 6-311+G(2d,p)
 ****
 37  38 0
 6-311+G(2d,p)
 ****
 1  2  3  4  5  17  18  19  20  21  22  23  24  25 0
 3-21G
 ****
 27  28  29  34  36  39  40  41  42  43  44  45  46 0
 3-21G
 ****


