%nproc=1
%NoSave
%Mem=1900MB
#P OB98/GEN NMR

erre ene a

0 1
  C     -126.701    -194.872     310.134
  O     -125.572    -195.517     309.553
  P     -125.389    -195.397     307.963
  C     -122.839    -195.826     308.221
  O     -124.064    -196.238     307.625
  C     -121.911    -197.016     308.421
  O     -122.344    -197.785     309.567
  C     -121.882    -198.001     307.264
  O     -121.029    -197.560     306.212
  C     -121.317    -199.245     307.939
  O     -119.879    -199.140     308.021
  C     -121.941    -199.162     309.347
  N     -123.525    -203.915     310.107
  C     -122.241    -203.415     310.002
  N     -121.240    -204.309     310.144
  N     -121.969    -202.157     309.771
  C     -123.068    -201.373     309.691
  C     -124.395    -201.751     309.776
  C     -124.684    -203.150     309.985
  O     -125.806    -203.662     310.018
  N     -125.227    -200.665     309.669
  C     -124.413    -199.633     309.548
  N     -123.099    -200.019     309.527
  O     -124.922    -193.877     307.761
  O     -126.600    -195.715     307.159
  H     -119.583    -199.795     308.686
  H     -125.156    -193.574     306.865
  H     -123.681    -204.888     310.306
  H     -124.737    -198.607     309.468
  H     -121.201    -199.409     310.121
  H     -121.547    -200.166     307.398
  H     -121.380    -205.259     310.452
  H     -122.893    -198.208     306.897
  H     -120.287    -203.951     310.109
  H     -120.901    -196.638     308.632
  H     -123.056    -195.374     309.198
  H     -122.365    -195.073     307.581
  P     -120.820    -198.573     304.980
  C     -120.485    -196.500     303.445
  O     -119.980    -197.746     303.905
  O     -122.279    -198.671     304.337
  O     -120.279    -199.907     305.369
  H     -122.386    -199.526     303.872
  H     -120.986    -195.958     304.252
  H     -121.186    -196.672     302.626
  H     -119.653    -195.889     303.081
  H     -126.698    -195.033     311.192
  H     -127.598    -195.277     309.714
  H     -126.655    -193.822     309.932

 3  4  5  6  7  8  9  10  11  12  23  26  30  31  33  0
 6-311+G(2d,p)
 ****
 35  36  37  38 0
 6-311+G(2d,p)
 ****
 1  2  13  14  15  16  17  18  19  20  21  22  24  25  27  28  29 0
 3-21G
 ****
 32  34  39  40  41  42  43  44  45  46  47  48  49 0
 3-21G
 ****


