%nproc=1
%NoSave
%Mem=1900MB
#P OB98/GEN NMR

erre ene a

0 1
  C     -293.079     727.901     414.276
  O     -293.969     729.006     414.385
  P     -293.557     730.234     415.328
  C     -291.724     731.667     414.059
  O     -293.072     731.468     414.429
  C     -291.409     733.170     414.097
  O     -289.978     733.385     414.005
  C     -292.051     733.950     412.952
  O     -293.376     734.360     413.266
  C     -291.084     735.113     412.782
  O     -291.301     736.095     413.804
  C     -289.729     734.403     412.994
  N     -289.090     733.753     411.820
  C     -288.823     734.508     410.675
  O     -289.096     735.698     410.555
  N     -288.215     733.839     409.648
  C     -287.699     732.571     409.696
  O     -287.111     732.047     408.763
  C     -287.872     731.875     410.980
  C     -288.553     732.487     411.958
  O     -292.218     729.731     416.037
  O     -294.600     730.637     416.318
  H     -292.197     736.446     413.683
  H     -292.357     729.643     416.999
  H     -288.088     734.344     408.779
  H     -287.439     730.888     411.077
  H     -288.690     731.973     412.909
  H     -288.988     735.102     413.411
  H     -291.242     735.612     411.834
  H     -292.036     733.364     412.030
  H     -291.751     733.570     415.059
  H     -291.530     731.267     413.061
  H     -291.065     731.127     414.743
  P     -294.501     734.341     412.133
  C     -294.948     731.819     411.974
  O     -295.421     733.065     412.447
  O     -294.016     734.461     410.720
  O     -295.457     735.567     412.547
  H     -295.219     736.382     412.047
  H     -295.560     731.020     412.387
  H     -293.906     731.664     412.288
  H     -295.009     731.793     410.883
  H     -293.496     727.171     413.614
  H     -292.932     727.465     415.242
  H     -292.139     728.237     413.890

 3  4  5  6  7  8  9  10  11  12  13  23  28  29  30  31  32 0
 6-311+G(2d,p)
 ****
 33  34 0
 6-311+G(2d,p)
 ****
 1  2  14  15  16  17  18  19  20  21  22  24  25  26  27 0
 3-21G
 ****
 35  36  37  38  39  40  41  42  43  44  45 0
 3-21G
 ****


