%nproc=1
%NoSave
%Mem=1900MB
#P OB98/GEN NMR

erre ene a

0 1
  C      -57.101     -80.207     403.297
  O      -57.068     -79.571     402.008
  P      -57.614     -78.084     401.741
  C      -59.955     -78.721     402.657
  O      -59.210     -78.162     401.582
  C      -61.292     -78.001     402.828
  O      -61.084     -76.616     403.173
  C      -62.165     -77.941     401.570
  O      -62.758     -79.187     401.266
  C      -63.160     -76.844     401.955
  O      -64.250     -77.378     402.726
  C      -62.304     -75.916     402.831
  N      -62.010     -74.638     402.193
  C      -61.873     -73.537     403.033
  O      -62.069     -73.645     404.241
  N      -61.522     -72.327     402.481
  C      -61.433     -72.208     401.189
  N      -61.064     -70.992     400.700
  C      -61.709     -73.319     400.257
  C      -61.986     -74.493     400.820
  O      -56.924     -77.377     400.618
  O      -57.411     -77.304     403.127
  H      -57.320     -76.347     402.953
  H      -63.924     -77.477     403.643
  H      -61.664     -73.167     399.182
  H      -62.184     -75.366     400.206
  H      -62.803     -75.724     403.788
  H      -63.588     -76.358     401.074
  H      -61.554     -77.599     400.726
  H      -61.844     -78.488     403.643
  H      -60.877     -70.257     401.372
  H      -59.370     -78.604     403.578
  H      -60.945     -70.801     399.720
  H      -60.105     -79.790     402.475
  P      -62.130     -80.008     400.039
  C      -64.019     -79.728     398.274
  O      -63.352     -80.590     399.170
  O      -61.507     -81.314     400.738
  O      -61.099     -79.266     399.255
  H      -60.660     -81.541     400.308
  H      -64.437     -80.326     397.455
  H      -63.343     -78.977     397.856
  H      -64.833     -79.230     398.800
  H      -56.683     -81.189     403.221
  H      -58.114     -80.276     403.635
  H      -56.531     -79.630     403.994

 3  4  5  6  7  8  9  10  11  12  13  24  27  28  29  30  32 0
 6-311+G(2d,p)
 ****
 34  35 0
 6-311+G(2d,p)
 ****
 1  2  14  15  16  17  18  19  20  21  22  23  25  26 0
 3-21G
 ****
 31  33  36  37  38  39  40  41  42  43  44  45  46 0
 3-21G
 ****


