%nproc=1
%NoSave
%Mem=1900MB
#P OB98/GEN NMR

erre ene a

0 1
  C      723.268    -622.694    -445.579
  O      722.795    -624.019    -445.406
  H      724.198    -622.587    -445.020
  H      722.529    -621.992    -445.185
  H      723.459    -622.481    -446.634
  P      721.657    -624.568    -446.390
  C      722.304    -627.046    -446.029
  O      721.284    -626.051    -445.905
  C      723.193    -627.083    -444.780
  O      722.388    -627.423    -443.624
  C      724.256    -628.177    -444.924
  O      725.440    -627.874    -444.184
  C      723.577    -629.388    -444.296
  O      724.506    -630.377    -443.867
  C      722.783    -628.732    -443.166
  N      720.988    -633.063    -441.175
  C      722.273    -632.734    -441.542
  N      723.198    -633.710    -441.375
  N      722.615    -631.583    -442.042
  C      721.575    -630.729    -442.217
  C      720.248    -630.958    -441.912
  C      719.893    -632.226    -441.329
  O      718.762    -632.570    -440.998
  N      719.470    -629.868    -442.251
  C      720.325    -629.003    -442.763
  N      721.617    -629.480    -442.753
  O      722.432    -624.831    -447.764
  O      720.478    -623.659    -446.590
  H      725.075    -629.977    -443.183
  H      721.819    -624.787    -448.517
  H      720.783    -633.970    -440.786
  H      720.066    -628.021    -443.155
  H      723.413    -628.589    -442.284
  H      722.939    -629.853    -445.056
  H      722.969    -634.667    -441.172
  H      724.519    -628.355    -445.959
  H      724.081    -633.602    -441.909
  H      723.623    -626.095    -444.590
  H      722.908    -626.786    -446.916
  H      721.857    -628.021    -446.231
  P      726.629    -627.135    -444.976
  C      728.101    -625.888    -443.195
  O      727.881    -627.044    -443.982
  O      726.121    -625.630    -445.107
  O      726.933    -627.745    -446.298
  H      725.820    -625.456    -446.012
  H      728.982    -626.022    -442.602
  H      727.260    -625.728    -442.553
  H      728.228    -625.040    -443.835

 6  7  8  9  10  11  12  13  14  15  26  29  33  34 0
 6-311+G(2d,p)
 ****
 36  38  39  40  41 0
 6-311+G(2d,p)
 ****
 1  2  3  4  5  16  17  18  19  20  21  22  23  24  25 0
 3-21G
 ****
 27  28  30  31  32  35  37  42  43  44  45  46  47 0
 3-21G
 ****
 48  49 0
 3-21G
 ****


