%nproc=1
%NoSave
%Mem=1900MB
#P OB98/GEN NMR

erre ene a

0 1
  C       -7.756    -192.727     217.294
  O       -7.280    -191.548     216.649
  P       -6.904    -190.268     217.546
  C       -4.953    -189.558     216.022
  O       -6.191    -189.171     216.608
  C       -4.446    -188.529     214.998
  O       -5.262    -188.554     213.792
  C       -4.433    -187.079     215.511
  O       -3.291    -186.437     214.931
  C       -5.715    -186.514     214.925
  O       -5.728    -185.096     214.902
  C       -5.719    -187.205     213.557
  N       -7.030    -187.181     212.923
  C       -7.494    -185.948     212.463
  O       -6.855    -184.923     212.693
  N       -8.695    -185.909     211.781
  C       -9.424    -186.983     211.709
  N      -10.590    -186.915     211.012
  C       -9.040    -188.267     212.340
  C       -7.831    -188.297     212.901
  O       -6.182    -190.568     218.818
  O       -8.335    -189.601     217.841
  H       -6.531    -184.791     214.421
  H       -8.319    -189.208     218.730
  H       -9.714    -189.108     212.326
  H       -7.460    -189.190     213.386
  H       -5.000    -186.729     212.874
  H       -6.574    -186.850     215.525
  H       -4.370    -187.001     216.600
  H       -3.424    -188.823     214.705
  H      -10.852    -186.022     210.599
  H       -5.072    -190.526     215.531
  H      -11.188    -187.719     210.865
  H       -4.214    -189.718     216.820
  P       -2.242    -185.691     215.897
  C        0.028    -186.381     214.825
  O       -0.928    -185.363     215.041
  O       -1.730    -186.908     216.824
  O       -2.796    -184.592     216.747
  H       -1.417    -186.543     217.672
  H        0.696    -186.076     214.014
  H       -0.451    -187.325     214.546
  H        0.630    -186.523     215.734
  H       -7.958    -193.478     216.560
  H       -8.654    -192.502     217.831
  H       -7.013    -193.085     217.976

 3  4  5  6  7  8  9  10  11  12  13  23  27  28  29  30  32 0
 6-311+G(2d,p)
 ****
 34  35 0
 6-311+G(2d,p)
 ****
 1  2  14  15  16  17  18  19  20  21  22  24  25  26 0
 3-21G
 ****
 31  33  36  37  38  39  40  41  42  43  44  45  46 0
 3-21G
 ****


