%nproc=1
%NoSave
%Mem=1900MB
#P OB98/GEN NMR

erre ene a

0 1
  C     -341.186    -245.916      41.431
  O     -341.652    -247.188      41.849
  P     -342.458    -248.089      40.792
  C     -341.842    -250.217      42.145
  O     -342.876    -249.444      41.555
  C     -342.381    -251.127      43.246
  O     -342.775    -250.307      44.385
  C     -343.622    -251.952      42.842
  O     -343.542    -253.202      43.555
  C     -344.778    -251.135      43.386
  O     -345.953    -251.916      43.553
  C     -344.161    -250.621      44.686
  N     -347.505    -248.868      48.149
  C     -347.005    -250.104      47.924
  N     -346.114    -250.497      46.983
  C     -345.738    -249.449      46.226
  C     -346.182    -248.139      46.311
  C     -347.106    -247.853      47.343
  N     -347.606    -246.591      47.583
  N     -345.589    -247.359      45.340
  C     -344.795    -248.182      44.684
  N     -344.835    -249.445      45.191
  O     -341.308    -248.566      39.786
  O     -343.564    -247.391      40.073
  H     -346.198    -252.309      42.693
  H     -341.430    -248.144      38.913
  H     -347.364    -250.892      48.588
  H     -344.184    -247.903      43.826
  H     -344.168    -251.386      45.488
  H     -345.000    -250.315      42.700
  H     -343.700    -252.134      41.761
  H     -341.572    -251.789      43.584
  H     -341.104    -249.540      42.583
  H     -348.151    -246.445      48.411
  H     -347.171    -245.804      47.103
  H     -341.343    -250.813      41.368
  P     -343.830    -254.539      42.705
  C     -342.291    -255.931      44.263
  O     -343.590    -255.770      43.693
  O     -342.584    -254.601      41.686
  O     -345.141    -254.535      41.982
  H     -342.853    -255.075      40.876
  H     -342.399    -256.353      45.268
  H     -341.751    -254.983      44.336
  H     -341.710    -256.627      43.641
  H     -340.672    -245.441      42.240
  H     -342.017    -245.312      41.132
  H     -340.517    -246.035      40.605

 3  4  5  6  7  8  9  10  11  12  22  25  29  30  31  32 0
 6-311+G(2d,p)
 ****
 33  36  37 0
 6-311+G(2d,p)
 ****
 1  2  13  14  15  16  17  18  19  20  21  23  24  26 0
 3-21G
 ****
 27  28  34  35  38  39  40  41  42  43  44  45  46  47  48 0
 3-21G
 ****


