%nproc=1
%NoSave
%Mem=1900MB
#P OB98/GEN NMR

erre ene a

0 1
  C      107.255      27.426     238.664
  O      108.048      28.010     237.644
  P      107.483      29.341     236.938
  C      108.958      30.898     238.402
  O      107.644      30.523     238.011
  C      109.147      32.417     238.353
  O      110.403      32.756     238.991
  C      109.165      32.992     236.935
  O      108.506      34.262     236.972
  C      110.641      33.208     236.659
  O      110.851      34.216     235.670
  C      111.158      33.560     238.061
  N      112.591      33.326     238.195
  C      113.299      34.183     239.047
  O      112.721      35.130     239.580
  N      114.642      33.977     239.230
  C      115.250      33.063     238.540
  N      116.582      32.895     238.759
  C      114.566      32.219     237.539
  C      113.250      32.388     237.435
  O      105.906      29.086     236.903
  O      108.047      29.610     235.582
  H      111.817      34.327     235.544
  H      105.501      29.503     236.118
  H      115.131      31.496     236.965
  H      112.664      31.792     236.746
  H      110.955      34.615     238.297
  H      111.096      32.277     236.304
  H      108.673      32.343     236.204
  H      108.345      32.880     238.939
  H      117.032      33.498     239.437
  H      109.682      30.437     237.717
  H      117.140      32.211     238.266
  H      109.159      30.516     239.413
  P      107.807      34.773     235.622
  C      105.487      34.024     236.422
  O      106.504      33.852     235.452
  O      108.780      34.159     234.504
  O      107.627      36.243     235.435
  H      108.495      34.458     233.623
  H      104.611      33.444     236.113
  H      105.198      35.076     236.497
  H      105.827      33.653     237.392
  H      107.747      26.555     239.043
  H      106.302      27.151     238.262
  H      107.118      28.131     239.457

 3  4  5  6  7  8  9  10  11  12  13  21  23  27  28  29  30  32 0
 6-311+G(2d,p)
 ****
 34  35 0
 6-311+G(2d,p)
 ****
 1  2  14  15  16  17  18  19  20  22  24  25  26 0
 3-21G
 ****
 31  33  36  37  38  39  40  41  42  43  44  45  46 0
 3-21G
 ****


