%nproc=1
%NoSave
%Mem=1900MB
#P OB98/GEN NMR

erre ene a

0 1
  C      151.975    -197.752     231.858
  O      151.192    -197.317     230.756
  P      150.004    -196.277     231.043
  C      148.573    -198.098     232.243
  O      148.661    -197.145     231.198
  C      147.183    -198.744     232.267
  O      147.154    -199.743     233.322
  C      146.026    -197.770     232.537
  O      144.888    -198.267     231.821
  C      145.796    -197.916     234.032
  O      144.492    -197.496     234.426
  C      146.067    -199.408     234.211
  N      144.445    -199.550     239.004
  C      143.817    -199.064     237.871
  N      142.553    -198.603     238.034
  N      144.372    -199.029     236.689
  C      145.630    -199.538     236.678
  C      146.371    -200.013     237.737
  C      145.731    -200.079     239.031
  O      146.213    -200.579     240.041
  N      147.638    -200.362     237.349
  C      147.638    -200.172     236.045
  N      146.427    -199.721     235.583
  O      149.822    -195.543     229.637
  O      150.240    -195.317     232.169
  H      144.372    -197.735     235.370
  H      150.342    -194.715     229.600
  H      143.959    -199.567     239.885
  H      148.472    -200.349     235.383
  H      145.201    -200.030     233.944
  H      146.527    -197.312     234.581
  H      142.055    -198.625     238.910
  H      146.244    -196.740     232.241
  H      142.059    -198.266     237.213
  H      147.030    -199.267     231.318
  H      148.736    -197.590     233.201
  H      149.354    -198.857     232.116
  P      144.110    -197.251     230.853
  C      143.168    -195.742     232.741
  O      142.887    -196.637     231.682
  O      143.389    -198.236     229.811
  O      144.983    -196.267     230.142
  H      143.322    -197.802     228.941
  H      142.286    -195.125     232.929
  H      144.015    -195.085     232.501
  H      143.402    -196.311     233.647
  H      152.722    -198.437     231.516
  H      151.345    -198.239     232.573
  H      152.448    -196.908     232.315

 3  4  5  6  7  8  9  10  11  12  23  26  30  31 0
 6-311+G(2d,p)
 ****
 33  35  36  37  38 0
 6-311+G(2d,p)
 ****
 1  2  13  14  15  16  17  18  19  20  21  22  24  25 0
 3-21G
 ****
 27  28  29  32  34  39  40  41  42  43  44  45  46  47  48  49 0
 3-21G
 ****


