%nproc=1
%NoSave
%Mem=1900MB
#P OB98/GEN NMR

erre ene a

0 1
  C      -35.715     241.455     298.285
  O      -34.806     240.634     297.578
  P      -35.032     239.050     297.493
  C      -33.292     238.617     299.351
  O      -34.657     238.488     298.950
  C      -33.059     237.962     300.711
  O      -33.839     238.625     301.732
  C      -33.456     236.496     300.774
  O      -32.480     235.689     300.148
  C      -33.585     236.288     302.279
  O      -32.303     236.044     302.878
  C      -34.155     237.646     302.741
  N      -35.589     237.582     303.005
  C      -35.967     236.917     304.178
  O      -35.118     236.395     304.899
  N      -37.308     236.813     304.474
  C      -38.186     237.313     303.659
  N      -39.493     237.171     304.003
  C      -37.831     237.996     302.403
  C      -36.526     238.095     302.140
  O      -34.357     238.369     296.349
  O      -36.632     238.913     297.458
  H      -32.407     236.236     303.833
  H      -36.996     239.175     296.581
  H      -38.599     238.386     301.752
  H      -36.176     238.575     301.236
  H      -33.652     237.978     303.661
  H      -34.223     235.432     302.522
  H      -34.437     236.358     300.300
  H      -31.996     238.077     300.965
  H      -39.699     236.666     304.858
  H      -33.052     239.683     299.414
  H      -40.260     237.486     303.428
  H      -32.651     238.165     298.588
  P      -32.932     234.430     299.265
  C      -32.895     232.614     301.077
  O      -33.705     233.409     300.223
  O      -31.858     233.823     298.420
  O      -34.109     235.019     298.350
  H      -33.989     234.701     297.432
  H      -33.518     232.223     301.888
  H      -32.081     233.206     301.506
  H      -32.485     231.777     300.513
  H      -35.395     242.474     298.227
  H      -35.748     241.150     299.310
  H      -36.690     241.362     297.853

 3  4  5  6  7  8  9  10  11  12  13  23  27  28  29  30  32 0
 6-311+G(2d,p)
 ****
 34  35 0
 6-311+G(2d,p)
 ****
 1  2  14  15  16  17  18  19  20  21  22  24  25  26 0
 3-21G
 ****
 31  33  36  37  38  39  40  41  42  43  44  45  46 0
 3-21G
 ****


