%nproc=1
%NoSave
%Mem=1900MB
#P OB98/GEN NMR

erre ene a

0 1
  C      200.959    -895.980     735.271
  O      199.697    -896.440     735.720
  P      199.617    -897.030     737.217
  C      197.571    -897.720     738.714
  O      198.071    -896.940     737.653
  C      196.467    -896.940     739.478
  O      197.026    -895.710     739.990
  C      195.294    -896.530     738.609
  O      194.409    -897.610     738.363
  C      194.699    -895.390     739.458
  O      193.905    -895.940     740.525
  C      195.967    -894.720     740.019
  N      196.351    -893.510     739.319
  C      195.710    -892.330     739.688
  O      194.852    -892.310     740.578
  N      196.070    -891.200     739.006
  C      196.942    -891.130     737.949
  O      197.186    -890.100     737.357
  C      197.564    -892.410     737.580
  C      197.240    -893.520     738.253
  O      200.338    -895.870     738.045
  O      200.249    -898.380     737.353
  H      200.241    -895.000     737.599
  H      193.242    -896.510     740.093
  H      195.614    -890.330     739.279
  H      198.259    -892.400     736.729
  H      197.705    -894.460     737.987
  H      195.815    -894.470     741.075
  H      194.062    -894.720     738.866
  H      195.645    -896.100     737.655
  H      196.145    -897.540     740.317
  H      198.378    -897.960     739.411
  H      197.156    -898.650     738.321
  P      193.205    -897.350     737.322
  C      191.796    -898.940     735.818
  O      192.606    -898.780     736.967
  O      194.031    -896.920     736.013
  O      192.223    -896.320     737.791
  H      194.818    -897.480     735.857
  H      191.785    -900.000     735.539
  H      192.173    -898.350     734.965
  H      190.776    -898.620     736.040
  H      200.870    -895.617     734.268
  H      201.663    -896.786     735.298
  H      201.298    -895.189     735.908

 3  4  5  6  7  8  9  10  11  12  13  24  28  29  30  31  32 0
 6-311+G(2d,p)
 ****
 33  34 0
 6-311+G(2d,p)
 ****
 1  2  14  15  16  17  18  19  20  21  22  23  25  26  27 0
 3-21G
 ****
 35  36  37  38  39  40  41  42  43  44  45 0
 3-21G
 ****


