%nproc=1
%NoSave
%Mem=1900MB
#P OB98/GEN NMR

erre ene a

0 1
  C     -896.757    -893.590    -891.950
  O     -896.337    -893.030    -893.170
  H     -896.237    -893.120    -891.140
  H     -897.827    -893.380    -891.840
  H     -896.597    -894.660    -891.950
  P     -894.827    -893.360    -893.650
  C     -895.787    -894.310    -895.850
  O     -894.947    -894.540    -894.710
  C     -895.407    -895.260    -897.000
  O     -894.137    -894.800    -897.560
  C     -895.267    -896.720    -896.580
  O     -895.747    -897.560    -897.600
  C     -893.737    -896.910    -896.430
  O     -893.367    -898.250    -896.600
  C     -893.247    -895.970    -897.520
  N     -888.357    -896.870    -898.740
  C     -889.537    -897.330    -899.250
  N     -890.777    -897.080    -898.830
  C     -890.767    -896.150    -897.890
  C     -889.677    -895.500    -897.300
  C     -888.417    -895.930    -897.790
  N     -887.217    -895.440    -897.280
  N     -890.077    -894.590    -896.310
  C     -891.427    -894.660    -896.380
  N     -891.887    -895.580    -897.320
  O     -894.227    -894.120    -892.340
  O     -893.967    -892.200    -894.000
  H     -893.627    -898.550    -897.510
  H     -893.987    -893.460    -891.670
  H     -889.397    -898.120    -900.000
  H     -892.057    -894.070    -895.750
  H     -893.267    -896.450    -898.540
  H     -893.417    -896.550    -895.460
  H     -895.747    -896.920    -895.600
  H     -896.157    -895.140    -897.820
  H     -895.657    -893.270    -896.200
  H     -886.377    -895.810    -897.610
  H     -887.237    -894.810    -896.510
  H     -896.817    -894.450    -895.570
  P     -896.727    -898.750    -897.090
  C     -899.047    -898.150    -898.050
  O     -898.217    -898.160    -896.910
  O     -896.237    -899.060    -895.610
  O     -896.617    -899.980    -897.980
  H     -896.127    -900.000    -895.500
  H     -900.000    -897.736    -897.794
  H     -899.177    -899.151    -898.406
  H     -898.594    -897.555    -898.816

 6  7  8  9  10  11  12  13  14  15  25  28  32  33  34  35 0
 6-311+G(2d,p)
 ****
 36  39  40 0
 6-311+G(2d,p)
 ****
 1  2  3  4  5  16  17  18  19  20  21  22  23  24 0
 3-21G
 ****
 26  27  29  30  31  37  38  41  42  43  44  45  46  47 0
 3-21G
 ****
 48 0
 3-21G
 ****


