%nproc=1
%NoSave
%Mem=1900MB
#P OB98/GEN NMR

erre ene a

0 1
  C     -437.852     372.343     472.874
  O     -438.988     371.584     473.238
  H     -438.179     373.245     472.351
  H     -437.207     371.774     472.196
  H     -437.286     372.632     473.763
  P     -438.759     370.128     473.874
  C     -439.544     368.949     476.039
  O     -439.650     370.099     475.204
  C     -440.759     368.851     476.955
  O     -440.814     369.992     477.833
  C     -442.082     368.841     476.205
  O     -442.317     367.575     475.609
  C     -443.043     369.236     477.308
  O     -443.356     368.116     478.144
  C     -442.209     370.278     478.081
  N     -442.530     371.653     477.706
  C     -441.937     372.655     478.482
  O     -441.184     372.365     479.408
  N     -442.237     373.967     478.190
  C     -443.032     374.247     477.212
  N     -443.280     375.572     476.977
  C     -443.667     373.226     476.361
  C     -443.382     371.962     476.664
  O     -437.344     369.693     474.069
  O     -439.556     369.155     472.882
  H     -443.828     368.480     478.916
  H     -438.978     368.847     472.162
  H     -444.325     373.511     475.556
  H     -443.804     371.146     476.092
  H     -442.363     370.184     479.164
  H     -443.972     369.630     476.904
  H     -442.092     369.635     475.450
  H     -440.649     367.944     477.572
  H     -442.834     376.235     477.590
  H     -438.628     369.056     476.630
  H     -443.820     375.910     476.195
  H     -439.455     368.044     475.430
  P     -443.390     367.424     474.423
  C     -443.705     365.746     472.493
  O     -442.809     366.264     473.477
  O     -443.771     368.691     473.734
  O     -444.622     366.704     475.150
  H     -445.121     367.334     475.732
  H     -443.211     364.984     471.927
  H     -444.011     366.535     471.839
  H     -444.564     365.330     472.977

 6  7  8  9  10  11  12  13  14  15  16  26  30  31  32  33  35 0
 6-311+G(2d,p)
 ****
 37  38 0
 6-311+G(2d,p)
 ****
 1  2  3  4  5  17  18  19  20  21  22  23  24  25 0
 3-21G
 ****
 27  28  29  34  36  39  40  41  42  43  44  45  46 0
 3-21G
 ****


