%nproc=1
%NoSave
%Mem=1900MB
#P OB98/GEN NMR

erre ene a

0 1
  C     -507.217    -891.950    1518.057
  O     -507.669    -892.410    1516.783
  P     -507.748    -891.450    1515.494
  C     -505.504    -891.990    1514.301
  O     -506.931    -892.110    1514.277
  C     -504.823    -893.220    1513.690
  O     -504.970    -894.340    1514.523
  C     -505.382    -893.630    1512.326
  O     -504.917    -892.750    1511.299
  C     -504.838    -895.060    1512.208
  O     -503.477    -895.070    1511.773
  C     -504.932    -895.540    1513.702
  N     -506.101    -896.400    1513.928
  C     -505.926    -897.760    1513.674
  O     -504.850    -898.170    1513.220
  N     -506.980    -898.600    1513.937
  C     -508.145    -898.140    1514.316
  N     -509.118    -899.030    1514.558
  C     -508.382    -896.680    1514.503
  C     -507.329    -895.900    1514.301
  O     -507.375    -890.010    1515.756
  O     -509.279    -891.540    1515.000
  H     -503.213    -896.000    1511.662
  H     -509.553    -890.700    1514.602
  H     -509.376    -896.330    1514.807
  H     -507.425    -894.820    1514.440
  H     -504.022    -896.100    1514.007
  H     -505.417    -895.680    1511.527
  H     -506.475    -893.640    1512.361
  H     -503.737    -892.970    1513.614
  H     -508.936    -900.000    1514.415
  H     -505.199    -891.880    1515.372
  H     -510.056    -898.760    1514.865
  H     -505.232    -891.070    1513.776
  P     -505.975    -892.100    1510.284
  C     -506.317    -889.700    1511.184
  O     -505.650    -890.540    1510.201
  O     -507.388    -892.460    1510.511
  O     -505.465    -892.620    1508.840
  H     -506.234    -892.710    1508.256
  H     -505.754    -888.770    1511.295
  H     -506.374    -890.200    1512.139
  H     -507.321    -889.470    1510.817
  H     -507.249    -892.757    1518.759
  H     -507.851    -891.157    1518.395
  H     -506.212    -891.592    1517.971

 3  4  5  6  7  8  9  10  11  12  13  23  27  28  29  30  32 0
 6-311+G(2d,p)
 ****
 34  35 0
 6-311+G(2d,p)
 ****
 1  2  14  15  16  17  18  19  20  21  22  24  25  26 0
 3-21G
 ****
 31  33  36  37  38  39  40  41  42  43  44  45  46 0
 3-21G
 ****


