%nproc=1
%NoSave
%Mem=1900MB
#P OB98/GEN NMR

erre ene a

0 1
  C     -109.396    -898.960     207.915
  O     -108.953    -898.890     206.567
  H     -109.379    -900.000     208.224
  H     -110.420    -898.580     207.999
  H     -108.726    -898.380     208.565
  P     -108.888    -897.450     205.862
  C     -110.720    -895.820     204.997
  O     -110.417    -897.120     205.482
  C     -111.650    -895.910     203.782
  O     -112.778    -896.760     204.051
  C     -112.251    -894.580     203.348
  O     -111.332    -893.710     202.701
  C     -113.332    -895.090     202.412
  O     -112.738    -895.490     201.162
  C     -113.866    -896.290     203.205
  N     -115.041    -895.970     204.027
  C     -116.278    -895.880     203.353
  O     -116.334    -896.070     202.137
  N     -117.406    -895.550     204.078
  C     -117.302    -895.310     205.343
  N     -118.447    -894.970     206.008
  C     -116.019    -895.360     206.085
  C     -114.942    -895.700     205.359
  O     -107.902    -897.310     204.738
  O     -108.638    -896.420     207.068
  H     -113.479    -895.760     200.580
  H     -108.578    -895.510     206.676
  H     -115.991    -895.120     207.142
  H     -113.974    -895.750     205.841
  H     -114.130    -897.120     202.530
  H     -114.090    -894.330     202.184
  H     -112.731    -894.070     204.194
  H     -111.067    -896.370     202.967
  H     -119.307    -894.930     205.474
  H     -109.774    -895.330     204.741
  H     -118.455    -894.690     206.986
  H     -111.218    -895.250     205.777
  P     -111.829    -892.210     202.415
  C     -113.783    -891.170     201.014
  O     -113.198    -892.340     201.556
  O     -110.765    -891.670     201.342
  O     -111.945    -891.330     203.623
  H     -110.077    -891.130     201.800
  H     -114.673    -891.431     200.481
  H     -113.091    -890.702     200.346
  H     -114.027    -890.493     201.806

 6  7  8  9  10  11  12  13  14  15  16  26  30  31  32  33  35 0
 6-311+G(2d,p)
 ****
 37  38 0
 6-311+G(2d,p)
 ****
 1  2  3  4  5  17  18  19  20  21  22  23  24  25 0
 3-21G
 ****
 27  28  29  34  36  39  40  41  42  43  44  45  46 0
 3-21G
 ****


