%nproc=1
%NoSave
%Mem=1900MB
#P OB98/GEN NMR

erre ene a

0 1
  C      637.945     -79.620     -50.743
  O      638.432     -80.444     -51.787
  P      639.765     -79.974     -52.549
  C      639.405     -81.819     -54.352
  O      639.593     -80.437     -54.082
  C      638.919     -82.014     -55.785
  O      637.603     -81.456     -55.963
  C      639.786     -81.329     -56.838
  O      640.945     -82.090     -57.159
  C      638.834     -81.285     -58.020
  O      638.808     -82.567     -58.684
  C      637.484     -81.009     -57.337
  N      633.762     -77.666     -56.579
  C      633.817     -79.016     -56.268
  N      632.697     -79.556     -55.743
  N      634.872     -79.762     -56.464
  C      635.913     -79.084     -57.005
  C      635.979     -77.747     -57.346
  C      634.803     -76.940     -57.140
  O      634.669     -75.758     -57.437
  N      637.204     -77.426     -57.864
  C      637.888     -78.555     -57.835
  N      637.130     -79.602     -57.365
  O      640.885     -80.967     -51.994
  O      640.125     -78.541     -52.349
  H      638.185     -82.483     -59.429
  H      641.771     -80.606     -52.175
  H      632.923     -77.141     -56.412
  H      638.913     -78.671     -58.157
  H      636.671     -81.572     -57.801
  H      639.122     -80.542     -58.772
  H      631.832     -79.051     -55.625
  H      640.048     -80.307     -56.538
  H      632.685     -80.558     -55.571
  H      638.858     -83.094     -55.990
  H      638.667     -82.224     -53.658
  H      640.356     -82.349     -54.197
  P      642.063     -81.351     -58.040
  C      642.853     -83.771     -58.574
  O      642.604     -82.467     -59.063
  O      643.269     -81.158     -57.008
  O      641.628     -80.058     -58.650
  H      643.822     -80.396     -57.258
  H      642.958     -84.450     -59.427
  H      642.035     -84.121     -57.944
  H      643.791     -83.779     -58.002
  H      637.059     -80.054     -50.330
  H      637.719     -78.649     -51.131
  H      638.690     -79.534     -49.979

 3  4  5  6  7  8  9  10  11  12  23  26  30  31 0
 6-311+G(2d,p)
 ****
 33  35  36  37  38 0
 6-311+G(2d,p)
 ****
 1  2  13  14  15  16  17  18  19  20  21  22  24  25 0
 3-21G
 ****
 27  28  29  32  34  39  40  41  42  43  44  45  46  47  48  49 0
 3-21G
 ****


