%nproc=1
%NoSave
%Mem=1900MB
#P OB98/GEN NMR

erre ene a

0 1
  C      686.611    -135.525    -503.473
  O      686.876    -136.070    -504.755
  H      686.235    -134.508    -503.598
  H      687.531    -135.496    -502.885
  H      685.853    -136.126    -502.958
  P      687.426    -137.575    -504.789
  C      685.181    -138.834    -504.354
  O      686.446    -138.428    -503.846
  C      684.945    -140.323    -504.070
  O      684.875    -140.518    -502.624
  C      683.630    -140.863    -504.652
  O      683.815    -142.266    -504.930
  C      682.681    -140.698    -503.479
  O      681.491    -141.429    -503.685
  C      683.600    -141.133    -502.348
  N      680.129    -142.025    -498.701
  C      680.372    -142.644    -499.874
  N      681.325    -142.354    -500.788
  C      682.087    -141.330    -500.373
  C      681.965    -140.607    -499.198
  C      680.922    -140.993    -498.333
  N      680.665    -140.364    -497.133
  N      682.923    -139.617    -499.129
  C      683.618    -139.742    -500.249
  N      683.138    -140.754    -501.031
  O      688.785    -137.494    -503.948
  O      687.644    -138.148    -506.149
  H      680.830    -141.216    -502.994
  H      689.543    -137.373    -504.552
  H      679.717    -143.474    -500.116
  H      684.459    -139.123    -500.534
  H      683.754    -142.219    -502.340
  H      682.383    -139.649    -503.363
  H      683.315    -140.352    -505.569
  H      685.809    -140.897    -504.422
  H      685.169    -138.658    -505.439
  H      684.392    -138.240    -503.884
  H      679.891    -140.690    -496.581
  H      681.243    -139.580    -496.862
  P      684.090    -142.735    -506.443
  C      686.601    -143.346    -506.039
  O      685.653    -142.569    -506.752
  O      683.455    -141.531    -507.287
  O      683.479    -144.037    -506.840
  H      683.154    -141.860    -508.152
  H      687.587    -143.103    -506.376
  H      686.412    -144.385    -506.210
  H      686.520    -143.136    -504.993

 6  7  8  9  10  11  12  13  14  15  25  28  32  33  34  35 0
 6-311+G(2d,p)
 ****
 36  37  40 0
 6-311+G(2d,p)
 ****
 1  2  3  4  5  16  17  18  19  20  21  22  23  24 0
 3-21G
 ****
 26  27  29  30  31  38  39 41  42  43  44  45  46  47  48 0
 3-21G
 ****


