%nproc=1
%NoSave
%Mem=1900MB
#P OB98/GEN NMR

erre ene a

0 1
  C        9.111      34.654    -115.308
  O        9.706      35.889    -115.669
  P        9.918      37.045    -114.587
  C       11.412      39.201    -114.693
  O       11.269      37.818    -114.933
  C       12.898      39.517    -114.479
  O       13.298      39.145    -113.144
  C       13.781      38.758    -115.465
  O       14.070      39.560    -116.598
  C       15.003      38.429    -114.630
  O       15.892      39.559    -114.571
  C       14.371      38.171    -113.241
  N       13.803      36.836    -112.973
  C       14.620      35.712    -113.047
  O       15.820      35.757    -113.298
  N       13.994      34.508    -112.843
  C       12.676      34.336    -112.536
  O       12.083      33.265    -112.595
  C       11.939      35.560    -112.206
  C       12.518      36.734    -112.458
  O       10.286      36.234    -113.259
  O        8.751      37.955    -114.382
  H       16.155      39.765    -115.486
  H        9.503      36.138    -112.685
  H       14.551      33.681    -113.034
  H       10.932      35.466    -111.822
  H       11.976      37.655    -112.258
  H       15.087      38.383    -112.439
  H       15.576      37.615    -115.071
  H       13.297      37.819    -115.763
  H       13.049      40.599    -114.586
  H       10.829      39.492    -113.813
  H       11.023      39.772    -115.542
  P       14.922      38.946    -117.805
  C       14.940      39.418    -120.324
  O       14.170      39.424    -119.139
  O       15.203      37.482    -117.717
  O       16.270      39.812    -117.781
  H       16.970      39.323    -117.304
  H       14.276      39.586    -121.175
  H       15.445      38.455    -120.450
  H       15.679      40.222    -120.288
  H        9.059      34.019    -116.167
  H        8.124      34.829    -114.934
  H        9.701      34.182    -114.551

 3  4  5  6  7  8  9  10  11  12  13  23  28  29  30  31  32 0
 6-311+G(2d,p)
 ****
 33  34 0
 6-311+G(2d,p)
 ****
 1  2  14  15  16  17  18  19  20  21  22  24  25  26  27 0
 3-21G
 ****
 35  36  37  38  39  40  41  42  43  44  45 0
 3-21G
 ****


