%nproc=1
%NoSave
%Mem=1900MB
#P OB98/GEN NMR

erre ene a

0 1
  C      318.817     -73.280    -268.578
  O      320.185     -72.946    -268.696
  H      318.651     -74.299    -268.936
  H      318.533     -73.226    -267.524
  H      318.198     -72.579    -269.146
  P      320.764     -72.794    -270.185
  C      321.481     -75.288    -270.353
  O      320.646     -74.251    -270.851
  C      321.535     -76.451    -271.346
  O      322.310     -76.042    -272.504
  C      322.187     -77.713    -270.772
  O      321.486     -78.860    -271.257
  C      323.591     -77.682    -271.353
  O      324.175     -78.975    -271.426
  C      323.341     -77.026    -272.709
  N      326.796     -77.174    -276.467
  C      325.652     -77.863    -276.262
  N      324.784     -77.758    -275.235
  C      325.170     -76.791    -274.384
  C      326.310     -76.007    -274.458
  C      327.154     -76.234    -275.557
  N      328.339     -75.564    -275.753
  N      326.377     -75.151    -273.376
  C      325.299     -75.414    -272.666
  N      324.542     -76.401    -273.233
  O      322.338     -72.628    -269.924
  O      320.209     -71.667    -270.987
  H      325.033     -78.899    -271.895
  H      322.527     -71.709    -269.659
  H      325.407     -78.601    -277.022
  H      325.027     -74.932    -271.737
  H      322.994     -77.744    -273.463
  H      324.235     -77.051    -270.730
  H      322.195     -77.727    -269.680
  H      320.518     -76.656    -271.701
  H      321.080     -75.639    -269.397
  H      328.912     -75.829    -276.538
  H      328.652     -74.904    -275.055
  H      322.490     -74.891    -270.194
  P      320.591     -79.663    -270.192
  C      322.157     -81.571    -269.406
  O      321.564     -80.319    -269.100
  O      320.057     -80.917    -271.032
  O      319.460     -78.857    -269.637
  H      319.092     -81.006    -270.921
  H      322.776     -81.882    -268.590
  H      322.753     -81.477    -270.290
  H      321.390     -82.299    -269.569

 6  7  8  9  10  11  12  13  14  15  25  28  32  33  34  35 0
 6-311+G(2d,p)
 ****
 36  39  40 0
 6-311+G(2d,p)
 ****
 1  2  3  4  5  16  17  18  19  20  21  22  23  24 0
 3-21G
 ****
 26  27  29  30  31  37  38  41  42  43  44  45  46  47 0
 3-21G
 ****
 48 0
 3-21G
 ****


