%nproc=1
%NoSave
%Mem=1900MB
#P OB98/GEN NMR

erre ene a

0 1
  C      101.184     246.259    -106.072
  O      101.033     245.052    -106.796
  H      101.271     247.086    -106.781
  H      102.090     246.233    -105.457
  H      100.312     246.431    -105.436
  P      101.038     243.672    -105.980
  C      103.130     242.182    -106.309
  O      102.582     243.347    -105.698
  C      103.410     242.449    -107.785
  O      103.899     243.793    -107.966
  C      104.481     241.536    -108.366
  O      103.965     240.240    -108.605
  C      104.882     242.317    -109.600
  O      103.950     242.122    -110.670
  C      104.827     243.771    -109.077
  N      106.135     244.280    -108.677
  C      106.414     245.606    -109.033
  O      105.580     246.277    -109.639
  N      107.642     246.124    -108.706
  C      108.507     245.399    -108.070
  N      109.704     245.973    -107.778
  C      108.248     244.002    -107.667
  C      107.056     243.511    -108.001
  O      100.265     242.533    -106.571
  O      100.484     244.087    -104.535
  H      104.016     241.175    -110.911
  H       99.513     244.010    -104.507
  H      108.996     243.436    -107.131
  H      106.785     242.495    -107.739
  H      104.419     244.442    -109.845
  H      105.868     242.021    -109.961
  H      105.344     241.493    -107.694
  H      102.467     242.354    -108.337
  H      109.843     246.931    -108.086
  H      102.389     241.383    -106.203
  H      110.417     245.537    -107.213
  H      104.051     241.876    -105.798
  P      104.919     238.955    -108.526
  C      105.301     237.922    -110.860
  O      105.707     238.923    -109.928
  O      104.245     237.682    -108.141
  O      106.057     239.412    -107.493
  H      105.718     239.416    -106.562
  H      105.893     238.000    -111.748
  H      104.269     238.061    -111.106
  H      105.436     236.954    -110.425

 6  7  8  9  10  11  12  13  14  15  16  26  30  31  32  33  35 0
 6-311+G(2d,p)
 ****
 37  38 0
 6-311+G(2d,p)
 ****
 1  2  3  4  5  17  18  19  20  21  22  23  24  25 0
 3-21G
 ****
 27  28  29  34  36  39  40  41  42  43  44  45  46 0
 3-21G
 ****


