%nproc=1
%NoSave
%Mem=1900MB
#P OB98/GEN NMR

erre ene a

0 1
  C      161.764      98.927     -42.852
  O      162.805      99.016     -41.876
  P      163.165      97.736     -40.987
  C      162.903      98.356     -38.490
  O      163.791      98.217     -39.592
  C      163.057      99.746     -37.864
  O      162.536     100.779     -38.733
  C      162.275      99.901     -36.565
  O      162.741      99.173     -35.450
  C      162.182     101.411     -36.424
  O      163.364     101.957     -35.836
  C      162.054     101.855     -37.899
  N      160.687     102.235     -38.257
  C      160.518     103.526     -38.744
  O      161.435     104.338     -38.838
  N      159.239     103.871     -39.089
  C      158.134     103.080     -38.964
  O      157.006     103.448     -39.269
  C      158.371     101.734     -38.421
  C      159.616     101.377     -38.098
  O      163.919      96.655     -41.684
  O      161.715      97.200     -40.541
  H      164.124     101.624     -36.351
  H      161.729      96.224     -40.593
  H      159.098     104.801     -39.451
  H      157.517     101.080     -38.304
  H      159.813     100.389     -37.696
  H      162.701     102.719     -38.097
  H      161.343     101.705     -35.786
  H      161.252      99.539     -36.746
  H      164.120      99.944     -37.717
  H      163.108      97.582     -37.748
  H      161.876      98.188     -38.836
  P      161.950      97.931     -34.816
  C      161.338      99.028     -32.549
  O      162.061      98.021     -33.219
  O      162.163      96.592     -35.444
  O      160.424      98.371     -35.062
  H      159.893      97.567     -35.216
  H      161.543      98.951     -31.478
  H      160.265      98.900     -32.709
  H      161.651     100.018     -32.894
  H      161.660      99.869     -43.349
  H      160.843      98.675     -42.369
  H      162.010      98.171     -43.568

 3  4  5  6  7  8  9  10  11  12  13  23  28  29  30  31  32 0
 6-311+G(2d,p)
 ****
 33  34 0
 6-311+G(2d,p)
 ****
 1  2  14  15  16  17  18  19  20  21  22  24  25  26  27 0
 3-21G
 ****
 35  36  37  38  39  40  41  42  43  44  45 0
 3-21G
 ****


