%nproc=1
%NoSave
%Mem=1900MB
#P OB98/GEN NMR

erre ene a

0 1
  C      695.978      47.421     245.403
  O      695.033      47.259     244.336
  P      694.178      45.923     244.099
  C      692.642      46.094     246.192
  O      693.696      45.378     245.534
  C      691.275      45.597     245.709
  O      691.005      44.276     246.249
  C      690.091      46.447     246.167
  O      690.008      47.672     245.473
  C      688.926      45.483     245.900
  O      688.497      45.559     244.532
  C      689.560      44.107     246.189
  N      689.057      43.487     247.402
  C      687.822      42.839     247.317
  O      687.171      42.881     246.265
  N      687.344      42.189     248.422
  C      687.995      42.245     249.543
  N      687.483      41.560     250.601
  C      689.231      43.035     249.718
  C      689.699      43.627     248.622
  O      694.871      44.890     243.274
  O      692.813      46.395     243.404
  H      692.447      45.667     242.863
  H      689.211      45.147     243.999
  H      689.721      43.103     250.683
  H      690.613      44.206     248.652
  H      689.386      43.431     245.340
  H      688.059      45.713     246.525
  H      690.169      46.628     247.249
  H      691.300      45.530     244.613
  H      686.637      41.021     250.446
  H      692.748      47.153     245.945
  H      687.910      41.534     251.511
  H      692.757      45.972     247.276
  P      690.173      49.020     246.339
  C      692.484      49.625     245.314
  O      691.746      49.306     246.479
  O      689.736      48.568     247.826
  O      689.360      50.173     245.860
  H      689.231      49.287     248.241
  H      693.337      50.244     245.598
  H      691.877      50.172     244.580
  H      692.852      48.703     244.864
  H      696.416      48.396     245.347
  H      696.745      46.680     245.316
  H      695.478      47.308     246.342

 3  4  5  6  7  8  9  10  11  12  13  24  27  28  29  30  32 0
 6-311+G(2d,p)
 ****
 34  35 0
 6-311+G(2d,p)
 ****
 1  2  14  15  16  17  18  19  20  21  22  23  25  26 0
 3-21G
 ****
 31  33  36  37  38  39  40  41  42  43  44  45  46 0
 3-21G
 ****


