%nproc=1
%NoSave
%Mem=1900MB
#P OB98/GEN NMR

erre ene a

0 1
  C        5.631       1.277       2.297
  O        4.923       2.271       3.006
  H        6.530       1.018       2.861
  H        5.931       1.657       1.317
  H        5.023       0.376       2.177
  P        3.469       2.701       2.490
  C        1.907       1.104       3.783
  O        2.448       2.413       3.690
  C        0.425       1.154       4.170
  O       -0.126      -0.196       4.075
  C        0.162       1.648       5.607
  O       -1.117       2.296       5.600
  C        0.112       0.330       6.358
  O       -0.385       0.470       7.664
  C       -0.713      -0.494       5.360
  N       -0.727      -1.932       5.598
  C       -1.521      -2.409       6.636
  O       -2.217      -1.703       7.364
  N       -1.497      -3.765       6.828
  C       -0.786      -4.669       6.094
  O       -0.828      -5.876       6.293
  C        0.040      -4.104       5.017
  C        0.028      -2.785       4.816
  O        3.060       2.149       1.166
  O        3.538       4.302       2.462
  H        3.667       4.608       1.545
  H        0.289       0.922       8.216
  H       -2.069      -4.129       7.573
  H        0.626      -4.792       4.422
  H        0.620      -2.341       4.023
  H       -1.744      -0.126       5.335
  H        1.120      -0.078       6.463
  H        0.923       2.346       5.966
  H       -0.112       1.768       3.437
  H        2.469       0.555       4.547
  H        2.027       0.596       2.821
  P       -1.303       3.885       5.474
  C       -0.175       4.476       3.220
  O       -1.398       4.254       3.914
  O       -0.276       4.675       6.215
  O       -2.773       4.185       6.030
  H       -2.813       5.097       6.372
  H       -0.383       4.711       2.197
  H        0.427       3.593       3.267
  H        0.350       5.291       3.674

 6  7  8  9  10  11  12  13  14  15  16  27  31  32  33  34  35 0
 6-311+G(2d,p)
 ****
 36  37 0
 6-311+G(2d,p)
 ****
 1  2  3  4  5  17  18  19  20  21  22  23  24  25 0
 3-21G
 ****
 26  28  29  30  38  39  40  41  42  43  44  45 0
 3-21G
 ****


