%nproc=1
%NoSave
%Mem=1900MB
#P OB98/GEN NMR

erre ene a

0 1
  C      363.681     177.164     165.739
  O      363.136     177.137     164.428
  P      363.422     175.842     163.532
  C      364.582     177.162     161.621
  O      363.491     176.343     162.004
  C      364.569     177.412     160.107
  O      364.789     176.143     159.423
  C      363.258     178.004     159.569
  O      363.614     178.872     158.493
  C      362.539     176.765     159.056
  O      361.477     177.043     158.168
  C      363.719     175.992     158.479
  N      361.536     172.605     155.315
  C      361.744     173.941     155.210
  N      362.332     174.775     156.093
  C      362.750     174.088     157.172
  C      362.587     172.748     157.438
  C      361.950     171.979     156.443
  N      361.736     170.628     156.558
  N      363.125     172.414     158.672
  C      363.590     173.554     159.138
  N      363.408     174.595     158.270
  O      362.041     175.040     163.590
  O      364.586     175.001     163.982
  H      360.923     176.251     158.033
  H      362.195     174.081     163.645
  H      361.369     174.396     154.292
  H      364.056     173.672     160.107
  H      364.051     176.401     157.515
  H      362.110     176.231     159.911
  H      362.698     178.571     160.321
  H      365.418     178.068     159.854
  H      365.521     176.660     161.879
  H      361.091     170.211     155.899
  H      361.869     170.216     157.484
  H      364.549     178.108     162.168
  P      363.330     180.448     158.634
  C      362.645     180.488     156.155
  O      363.521     181.009     157.137
  O      364.679     180.943     159.337
  O      362.076     180.813     159.350
  H      365.472     180.627     158.864
  H      362.809     181.023     155.208
  H      361.601     180.634     156.459
  H      362.843     179.431     155.994
  H      363.412     178.082     166.218
  H      364.747     177.090     165.684
  H      363.295     176.341     166.303

 3  4  5  6  7  8  9  10  11  12  22  25  29  30  31  32 0
 6-311+G(2d,p)
 ****
 33  36  37 0
 6-311+G(2d,p)
 ****
 1  2  13  14  15  16  17  18  19  20  21  23  24  26 0
 3-21G
 ****
 27  28  34  35  38  39  40  41  42  43  44  45  46  47  48 0
 3-21G
 ****


