%nproc=1
%NoSave
%Mem=1900MB
#P OB98/GEN NMR

erre ene a

0 1
  C       30.693     138.197     134.376
  O       29.752     137.149     134.162
  P       28.468     137.066     135.116
  C       27.057     137.896     133.036
  O       27.235     137.817     134.435
  C       25.552     137.956     132.720
  O       24.935     136.672     132.968
  C       24.802     138.982     133.561
  O       24.837     140.271     132.984
  C       23.410     138.382     133.615
  O       22.707     138.628     132.383
  C       23.734     136.876     133.761
  N       23.966     136.343     135.121
  C       22.949     135.663     135.784
  O       21.827     135.466     135.316
  N       23.254     135.189     137.034
  C       24.490     135.166     137.609
  O       24.720     134.673     138.703
  C       25.564     135.762     136.805
  C       25.261     136.320     135.631
  O       28.852     138.004     136.351
  O       28.111     135.680     135.555
  H       21.847     138.180     132.449
  H       28.916     137.482     137.172
  H       22.508     134.755     137.556
  H       26.572     135.725     137.200
  H       26.048     136.768     135.029
  H       22.938     136.265     133.316
  H       22.812     138.842     134.401
  H       25.198     138.999     134.581
  H       25.430     138.188     131.655
  H       27.506     137.033     132.537
  H       27.560     138.786     132.650
  P       24.593     141.566     133.898
  C       26.878     142.561     133.289
  O       26.054     142.070     134.331
  O       23.610     141.405     135.012
  O       24.136     142.687     132.849
  H       23.156     142.752     132.813
  H       27.771     143.016     133.731
  H       26.345     143.321     132.708
  H       27.187     141.742     132.640
  H       31.487     138.115     133.663
  H       31.093     138.121     135.365
  H       30.206     139.143     134.260

 3  4  5  6  7  8  9  10  11  12  13  23  28  29  30  31  32 0
 6-311+G(2d,p)
 ****
 33  34 0
 6-311+G(2d,p)
 ****
 1  2  14  15  16  17  18  19  20  21  22  24  25  26  27 0
 3-21G
 ****
 35  36  37  38  39  40  41  42  43  44  45 0
 3-21G
 ****


