%nproc=1
%NoSave
%Mem=1900MB
#P OB98/GEN NMR

erre ene a

0 1
  C      104.078    -110.649     360.240
  O      103.256    -110.960     361.353
  P      103.085    -112.472     361.859
  C      102.469    -111.747     364.249
  O      102.019    -112.389     363.061
  C      101.336    -111.666     365.265
  O      100.384    -110.671     364.813
  C      100.512    -112.943     365.450
  O      101.073    -113.882     366.359
  C       99.230    -112.373     366.041
  O       99.422    -112.097     367.443
  C       99.063    -111.069     365.257
  N       94.241    -111.849     363.729
  C       94.791    -111.715     364.954
  N       96.087    -111.529     365.283
  C       96.844    -111.438     364.174
  C       96.429    -111.550     362.858
  C       95.054    -111.766     362.650
  N       94.494    -111.882     361.393
  N       97.501    -111.424     361.993
  C       98.539    -111.228     362.780
  N       98.193    -111.220     364.103
  O      104.358    -113.176     362.166
  O      102.244    -113.185     360.698
  H       99.548    -112.957     367.886
  H      102.314    -114.155     360.774
  H       94.097    -111.769     365.791
  H       99.555    -111.092     362.435
  H       98.668    -110.255     365.879
  H       98.383    -113.064     365.969
  H      100.286    -113.416     364.483
  H      101.750    -111.331     366.223
  H      102.794    -110.728     363.989
  H       93.487    -111.901     361.334
  H       95.070    -111.655     360.590
  H      103.329    -112.282     364.658
  P      100.760    -115.438     366.095
  C      102.808    -116.708     367.111
  O      101.494    -116.231     367.279
  O      101.068    -115.911     364.718
  O       99.207    -115.557     366.479
  H       98.998    -115.419     367.418
  H      103.179    -117.077     368.073
  H      103.471    -115.919     366.758
  H      102.815    -117.546     366.399
  H      104.058    -109.593     360.066
  H      103.714    -111.161     359.374
  H      105.082    -110.958     360.441

 3  4  5  6  7  8  9  10  11  12  22  25  29  30  31  32 0
 6-311+G(2d,p)
 ****
 33  36  37 0
 6-311+G(2d,p)
 ****
 1  2  13  14  15  16  17  18  19  20  21  23  24  26 0
 3-21G
 ****
 27  28  34  35  38  39  40  41  42  43  44  45  46  47  48 0
 3-21G
 ****


