%nproc=1
%NoSave
%Mem=1900MB
#P OB98/GEN NMR

erre ene a

0 1
  C     -146.248     279.879      97.117
  O     -146.884     280.143      98.377
  P     -146.093     280.041      99.770
  C     -146.236     281.922     101.525
  O     -146.917     280.841     100.890
  C     -147.100     282.574     102.613
  O     -148.130     283.393     102.026
  C     -147.816     281.585     103.528
  O     -146.924     281.070     104.501
  C     -148.942     282.455     104.082
  O     -148.458     283.273     105.163
  C     -149.297     283.324     102.870
  N     -154.231     282.007     103.155
  C     -153.377     282.516     104.070
  N     -152.075     282.837     103.921
  C     -151.674     282.603     102.657
  C     -152.428     282.082     101.614
  C     -153.770     281.773     101.903
  N     -154.633     281.242     100.974
  N     -151.668     281.961     100.474
  C     -150.477     282.419     100.812
  N     -150.431     282.818     102.117
  O     -144.649     280.421      99.686
  O     -146.251     278.512     100.217
  H     -148.037     282.678     105.811
  H     -145.486     278.249     100.765
  H     -153.796     282.691     105.057
  H     -149.624     282.482     100.148
  H     -149.530     284.353     103.166
  H     -149.779     281.867     104.466
  H     -148.245     280.770     102.936
  H     -146.449     283.236     103.200
  H     -145.984     282.669     100.764
  H     -155.571     281.016     101.265
  H     -154.286     281.020     100.050
  H     -145.308     281.539     101.966
  P     -146.178     279.675     104.246
  C     -144.434     278.239     105.465
  O     -145.232     279.406     105.514
  O     -145.514     279.533     102.917
  O     -147.336     278.585     104.437
  H     -147.142     277.809     103.881
  H     -145.042     277.371     105.735
  H     -143.618     278.341     106.186
  H     -144.009     278.094     104.466
  H     -146.957     280.006      96.326
  H     -145.878     278.875      97.107
  H     -145.434     280.560      96.979

 3  4  5  6  7  8  9  10  11  12  22  25  29  30  31  32 0
 6-311+G(2d,p)
 ****
 33  36  37 0
 6-311+G(2d,p)
 ****
 1  2  13  14  15  16  17  18  19  20  21  23  24  26 0
 3-21G
 ****
 27  28  34  35  38  39  40  41  42  43  44  45  46  47  48 0
 3-21G
 ****


