%nproc=1
%NoSave
%Mem=1900MB
#P OB98/GEN NMR

erre ene a

0 1
  C     -274.012     621.596     200.149
  O     -274.931     622.085     201.107
  H     -273.063     621.391     200.641
  H     -273.852     622.338     199.357
  H     -274.383     620.659     199.700
  P     -276.410     622.463     200.616
  C     -275.711     624.912     200.184
  O     -276.580     624.030     200.891
  C     -275.827     626.326     200.748
  O     -277.137     626.861     200.510
  C     -275.585     626.401     202.264
  O     -274.193     626.399     202.550
  C     -276.265     627.731     202.587
  O     -275.405     628.815     202.175
  C     -277.514     627.672     201.680
  N     -282.416     628.271     202.815
  C     -281.526     629.150     202.223
  N     -282.007     630.381     201.932
  N     -280.281     628.866     201.962
  C     -279.922     627.614     202.370
  C     -280.713     626.655     202.985
  C     -282.115     626.972     203.197
  O     -282.945     626.213     203.706
  N     -279.985     625.545     203.304
  C     -278.777     625.797     202.860
  N     -278.669     627.060     202.301
  O     -277.536     621.618     201.176
  O     -276.331     622.367     199.019
  H     -274.487     628.511     202.306
  H     -276.591     621.488     198.707
  H     -283.361     628.559     202.996
  H     -277.930     625.124     202.913
  H     -277.813     628.651     201.314
  H     -276.474     627.859     203.640
  H     -282.853     630.740     202.365
  H     -276.118     625.608     202.801
  H     -281.358     631.061     201.556
  H     -275.107     626.965     200.222
  H     -276.025     624.905     199.138
  H     -274.676     624.565     200.255
  P     -273.489     625.135     203.263
  C     -273.699     626.090     205.651
  O     -272.835     625.731     204.599
  O     -272.573     624.359     202.397
  O     -274.722     624.276     203.836
  H     -275.084     623.624     203.191
  H     -273.125     626.469     206.470
  H     -274.250     625.230     205.969
  H     -274.379     626.844     205.313

 6  7  8  9  10  11  12  13  14  15  26  29  33  34 0
 6-311+G(2d,p)
 ****
 36  38  39  40  41 0
 6-311+G(2d,p)
 ****
 1  2  3  4  5  16  17  18  19  20  21  22  23  24  25 0
 3-21G
 ****
 27  28  30  31  32  35  37  42  43  44  45  46  47 0
 3-21G
 ****
 48  49 0
 3-21G
 ****


