%nproc=1
%NoSave
%Mem=1900MB
#P OB98/GEN NMR

erre ene a

0 1
  C      199.027      42.522      29.876
  O      199.837      42.982      28.814
  H      199.617      41.847      30.501
  H      198.168      41.971      29.481
  H      198.680      43.357      30.492
  P      199.278      44.144      27.861
  C      198.985      46.694      28.125
  O      199.057      45.436      28.784
  C      197.926      47.570      28.787
  O      196.618      46.974      28.632
  C      198.120      47.756      30.288
  O      199.162      48.675      30.551
  C      196.732      48.223      30.697
  O      196.559      49.622      30.413
  C      195.831      47.359      29.781
  N      195.285      46.182      30.458
  C      193.963      46.272      30.885
  O      193.282      47.289      30.751
  N      193.453      45.154      31.491
  C      194.147      44.016      31.781
  O      193.656      43.057      32.379
  C      195.548      43.989      31.338
  C      196.045      45.054      30.707
  O      198.111      43.776      27.005
  O      200.552      44.551      26.977
  H      197.193      50.102      30.978
  H      200.488      44.131      26.100
  H      192.502      45.206      31.821
  H      196.131      43.101      31.557
  H      197.078      45.056      30.376
  H      194.992      47.955      29.403
  H      196.541      48.093      31.763
  H      198.321      46.789      30.766
  H      197.915      48.542      28.274
  H      198.717      46.527      27.074
  H      199.968      47.175      28.168
  P      199.979      48.616      31.926
  C      201.838      47.126      32.875
  O      200.736      47.197      31.978
  O      199.191      48.944      33.149
  O      201.174      49.655      31.714
  H      201.004      50.468      32.233
  H      202.269      46.147      32.834
  H      201.501      47.326      33.871
  H      202.573      47.851      32.595

 6  7  8  9  10  11  12  13  14  15  16  26  31  32  33  34  35 0
 6-311+G(2d,p)
 ****
 36  37 0
 6-311+G(2d,p)
 ****
 1  2  3  4  5  17  18  19  20  21  22  23  24  25 0
 3-21G
 ****
 27  28  29  30  38  39  40  41  42  43  44  45 0
 3-21G
 ****


