%nproc=1
%NoSave
%Mem=1900MB
#P OB98/GEN NMR

erre ene a

0 1
  C     -642.865    -166.149    1003.568
  O     -643.532    -165.619    1002.437
  P     -643.023    -166.100    1000.993
  C     -645.338    -167.132    1000.393
  O     -643.943    -167.342    1000.558
  C     -645.735    -167.345     998.935
  O     -645.595    -168.733     998.570
  C     -647.187    -166.990     998.613
  O     -647.357    -165.577     998.544
  C     -647.360    -167.725     997.296
  O     -646.770    -166.966     996.226
  C     -646.575    -169.016     997.534
  N     -648.070    -173.792     996.474
  C     -647.245    -172.956     995.828
  N     -646.908    -171.688     996.161
  C     -647.523    -171.310     997.297
  C     -648.422    -172.052     998.054
  C     -648.684    -173.358     997.600
  N     -649.537    -174.222     998.265
  N     -648.864    -171.332     999.130
  C     -648.249    -170.177     999.049
  N     -647.419    -170.119     997.954
  O     -641.612    -166.778    1001.312
  O     -642.899    -165.004     999.979
  H     -647.272    -166.131     996.153
  H     -640.980    -166.634    1000.582
  H     -646.772    -173.345     994.917
  H     -648.365    -169.355     999.732
  H     -646.015    -169.345     996.650
  H     -648.416    -167.887     997.036
  H     -647.859    -167.400     999.381
  H     -645.045    -166.752     998.313
  H     -645.591    -166.112    1000.685
  H     -649.782    -175.076     997.788
  H     -650.104    -173.854     999.019
  H     -645.885    -167.822    1001.054
  P     -648.249    -164.882     999.690
  C     -646.103    -163.992    1000.795
  O     -647.253    -164.804    1000.941
  O     -649.237    -166.078    1000.094
  O     -648.905    -163.607     999.288
  H     -648.751    -166.916    1000.246
  H     -645.552    -163.981    1001.728
  H     -646.393    -162.970    1000.532
  H     -645.457    -164.403     999.997
  H     -643.301    -165.748    1004.459
  H     -641.829    -165.884    1003.528
  H     -642.961    -167.215    1003.572

 3  4  5  6  7  8  9  10  11  12  22  25  29  30  31  32 0
 6-311+G(2d,p)
 ****
 33  36  37 0
 6-311+G(2d,p)
 ****
 1  2  13  14  15  16  17  18  19  20  21  23  24  26 0
 3-21G
 ****
 27  28  34  35  38  39  40  41  42  43  44  45  46  47  48 0
 3-21G
 ****


