%nproc=1
%NoSave
%Mem=1900MB
#P OB98/GEN NMR

erre ene a

0 1
  C       20.746      73.377    -259.027
  O       19.358      73.593    -259.197
  H       21.253      74.344    -259.024
  H       21.143      72.776    -259.850
  H       20.941      72.877    -258.074
  P       18.392      72.317    -259.240
  C       17.769      72.201    -261.744
  O       18.576      71.674    -260.699
  C       18.112      71.518    -263.064
  O       19.455      71.849    -263.467
  C       18.036      69.994    -263.011
  O       16.693      69.558    -263.142
  C       18.903      69.633    -264.204
  O       18.162      69.840    -265.423
  C       20.035      70.669    -264.089
  N       24.740      68.784    -264.197
  C       23.861      69.035    -265.232
  N       24.282      68.693    -266.469
  N       22.670      69.553    -265.067
  C       22.362      69.775    -263.771
  C       23.141      69.552    -262.657
  C       24.477      69.030    -262.858
  O       25.293      68.808    -261.967
  N       22.461      69.838    -261.500
  C       21.285      70.271    -261.916
  N       21.170      70.238    -263.286
  O       16.960      72.554    -258.860
  O       19.102      71.257    -258.276
  H       18.808      69.805    -266.152
  H       18.762      71.324    -257.366
  H       25.635      68.366    -264.387
  H       20.489      70.622    -261.271
  H       20.427      70.969    -265.066
  H       19.233      68.596    -264.199
  H       25.047      68.047    -266.615
  H       18.508      69.595    -262.106
  H       23.633      68.822    -267.235
  H       17.437      71.916    -263.833
  H       17.969      73.276    -261.805
  H       16.708      72.052    -261.518
  P       16.233      68.114    -262.609
  C       16.426      66.892    -264.877
  O       16.966      67.064    -263.573
  O       14.759      67.930    -262.492
  O       17.021      67.926    -261.232
  H       16.535      68.284    -260.448
  H       17.006      66.169    -265.411
  H       16.451      67.825    -265.400
  H       15.414      66.553    -264.802

 6  7  8  9  10  11  12  13  14  15  26  29  33  34 0
 6-311+G(2d,p)
 ****
 36  38  39  40  41 0
 6-311+G(2d,p)
 ****
 1  2  3  4  5  16  17  18  19  20  21  22  23  24  25 0
 3-21G
 ****
 27  28  30  31  32  35  37  42  43  44  45  46  47 0
 3-21G
 ****
 48  49 0
 3-21G
 ****


