%nproc=1
%NoSave
%Mem=1900MB
#P OB98/GEN NMR

erre ene a

0 1
  C      -80.063      70.793       0.800
  O      -78.714      70.924       0.401
  P      -77.709      71.893       1.183
  C      -78.457      73.932      -0.178
  O      -78.305      73.378       1.123
  C      -77.907      75.356      -0.246
  O      -78.853      76.269       0.368
  C      -76.553      75.539       0.457
  O      -75.786      76.453      -0.335
  C      -76.939      76.175       1.779
  O      -75.861      76.880       2.377
  C      -78.126      77.038       1.346
  N      -78.978      77.417       2.464
  C      -78.592      78.535       3.203
  O      -77.505      79.078       2.983
  N      -79.437      79.000       4.180
  C      -80.475      78.297       4.512
  N      -81.322      78.827       5.436
  C      -80.775      76.979       3.918
  C      -80.022      76.623       2.882
  O      -76.277      71.783       0.776
  O      -77.896      71.493       2.723
  H      -77.022      71.292       3.109
  H      -75.147      76.245       2.597
  H      -81.577      76.373       4.316
  H      -80.180      75.686       2.362
  H      -77.778      77.951       0.843
  H      -77.265      75.396       2.480
  H      -76.001      74.602       0.567
  H      -77.821      75.638      -1.302
  H      -81.106      79.752       5.791
  H      -79.522      73.951      -0.417
  H      -82.292      78.519       5.521
  H      -77.960      73.290      -0.914
  P      -74.246      76.094      -0.635
  C      -73.195      78.260       0.333
  O      -73.346      76.857       0.446
  O      -73.970      76.948      -1.966
  O      -73.935      74.654      -0.882
  H      -73.243      76.533      -2.465
  H      -72.499      78.598       1.106
  H      -74.156      78.756       0.490
  H      -72.790      78.527      -0.644
  H      -80.561      70.102       0.152
  H      -80.546      71.746       0.744
  H      -80.104      70.431       1.806

 3  4  5  6  7  8  9  10  11  12  13  24  27  28  29  30  32 0
 6-311+G(2d,p)
 ****
 34  35 0
 6-311+G(2d,p)
 ****
 1  2  14  15  16  17  18  19  20  21  22  23  25  26 0
 3-21G
 ****
 31  33  36  37  38  39  40  41  42  43  44  45  46 0
 3-21G
 ****


