%nproc=1
%NoSave
%Mem=1900MB
#P OB98/GEN NMR

erre ene a

0 1
  C     -518.984    -830.684    -220.632
  O     -519.157    -831.472    -219.474
  H     -518.149    -831.090    -221.210
  H     -518.745    -829.649    -220.352
  H     -519.892    -830.702    -221.247
  P     -520.439    -831.156    -218.561
  C     -519.919    -833.417    -217.326
  O     -520.315    -832.051    -217.236
  C     -519.365    -833.888    -215.985
  O     -518.217    -833.095    -215.583
  C     -520.332    -833.737    -214.830
  O     -521.407    -834.659    -214.881
  C     -519.385    -833.955    -213.645
  O     -519.123    -835.345    -213.441
  C     -518.119    -833.215    -214.133
  N     -517.951    -831.916    -213.502
  C     -517.000    -831.851    -212.468
  O     -516.364    -832.852    -212.157
  N     -516.838    -830.659    -211.802
  C     -517.516    -829.627    -212.151
  N     -517.306    -828.477    -211.448
  C     -518.506    -829.631    -213.254
  C     -518.678    -830.800    -213.865
  O     -521.626    -831.873    -219.362
  O     -520.671    -829.706    -218.275
  H     -518.655    -835.421    -212.590
  H     -521.449    -832.814    -219.558
  H     -519.050    -828.730    -213.509
  H     -519.381    -830.897    -214.680
  H     -517.226    -833.818    -213.930
  H     -519.809    -833.571    -212.709
  H     -520.711    -832.705    -214.777
  H     -519.034    -834.930    -216.098
  H     -516.625    -828.509    -210.686
  H     -519.177    -833.553    -218.118
  H     -517.796    -827.608    -211.607
  H     -520.812    -834.002    -217.593
  P     -522.504    -834.707    -213.707
  C     -524.665    -835.538    -214.838
  O     -523.508    -835.898    -214.106
  O     -523.167    -833.418    -213.411
  O     -521.691    -835.337    -212.477
  H     -521.324    -836.227    -212.639
  H     -525.246    -836.413    -215.040
  H     -524.375    -835.082    -215.761
  H     -525.248    -834.847    -214.266

 6  7  8  9  10  11  12  13  14  15  16  26  30  31  32  33  35 0
 6-311+G(2d,p)
 ****
 37  38 0
 6-311+G(2d,p)
 ****
 1  2  3  4  5  17  18  19  20  21  22  23  24  25 0
 3-21G
 ****
 27  28  29  34  36  39  40  41  42  43  44  45  46 0
 3-21G
 ****


