%nproc=1
%NoSave
%Mem=1900MB
#P OB98/GEN NMR

erre ene a

0 1
  C     -153.624    -220.880     601.459
  O     -154.572    -221.861     601.836
  H     -153.749    -220.664     600.394
  H     -152.611    -221.258     601.625
  H     -153.777    -219.961     602.030
  P     -154.675    -222.204     603.399
  C     -157.292    -222.214     603.634
  O     -156.059    -221.575     603.935
  C     -158.372    -221.163     603.378
  O     -158.047    -220.344     602.239
  C     -159.732    -221.747     603.023
  O     -160.368    -222.359     604.123
  C     -160.441    -220.503     602.511
  O     -160.902    -219.686     603.598
  C     -159.300    -219.798     601.742
  N     -159.418    -219.954     600.297
  C     -160.650    -219.570     599.741
  O     -161.540    -219.120     600.462
  N     -160.838    -219.734     598.395
  C     -159.882    -220.212     597.657
  N     -160.141    -220.359     596.330
  C     -158.565    -220.601     598.203
  C     -158.405    -220.453     599.508
  O     -153.576    -221.236     604.044
  O     -154.513    -223.645     603.747
  H     -161.252    -218.869     603.196
  H     -153.686    -220.301     603.797
  H     -157.798    -220.989     597.547
  H     -157.473    -220.719     599.987
  H     -159.289    -218.720     601.967
  H     -161.313    -220.752     601.906
  H     -159.636    -222.452     602.184
  H     -158.433    -220.515     604.264
  H     -161.059    -220.100     596.000
  H     -157.590    -222.886     604.437
  H     -159.488    -220.750     595.666
  H     -157.138    -222.821     602.731
  P     -160.443    -223.956     604.238
  C     -159.792    -224.409     606.689
  O     -159.349    -224.388     605.333
  O     -160.346    -224.690     602.941
  O     -161.821    -224.205     605.018
  H     -161.865    -223.801     605.899
  H     -158.984    -224.709     607.323
  H     -160.601    -225.102     606.789
  H     -160.123    -223.431     606.971

 6  7  8  9  10  11  12  13  14  15  16  26  30  31  32  33  35 0
 6-311+G(2d,p)
 ****
 37  38 0
 6-311+G(2d,p)
 ****
 1  2  3  4  5  17  18  19  20  21  22  23  24  25 0
 3-21G
 ****
 27  28  29  34  36  39  40  41  42  43  44  45  46 0
 3-21G
 ****


