%nproc=1
%NoSave
%Mem=1900MB
#P OB98/GEN NMR

erre ene a

0 1
  C     -471.105      44.647    -477.262
  O     -472.009      44.736    -478.344
  H     -470.983      43.602    -476.951
  H     -470.133      45.033    -477.581
  H     -471.466      45.245    -476.421
  P     -473.469      44.111    -478.104
  C     -474.698      46.390    -478.228
  O     -474.350      45.272    -477.426
  C     -476.159      46.769    -478.001
  O     -476.349      47.204    -476.634
  C     -476.663      47.922    -478.859
  O     -476.973      47.503    -480.180
  C     -477.909      48.329    -478.083
  O     -478.995      47.435    -478.415
  C     -477.483      48.108    -476.626
  N     -479.091      52.053    -473.754
  C     -479.746      50.991    -474.269
  N     -479.263      49.987    -475.033
  C     -477.940      50.148    -475.236
  C     -477.143      51.178    -474.772
  C     -477.770      52.166    -474.003
  N     -477.098      53.260    -473.487
  N     -475.837      50.996    -475.175
  C     -475.838      49.876    -475.869
  N     -477.092      49.328    -475.942
  O     -473.241      43.075    -476.905
  O     -474.085      43.449    -479.292
  H     -479.781      47.773    -477.947
  H     -473.818      42.300    -477.043
  H     -480.810      50.934    -474.036
  H     -474.969      49.433    -476.329
  H     -478.277      47.630    -476.039
  H     -478.242      49.341    -478.307
  H     -475.952      48.759    -478.859
  H     -476.774      45.870    -478.154
  H     -474.558      46.137    -479.284
  H     -477.548      53.823    -472.793
  H     -476.100      53.335    -473.682
  H     -474.043      47.227    -477.967
  P     -477.047      48.632    -481.320
  C     -475.419      47.269    -482.823
  O     -475.677      48.496    -482.144
  O     -476.846      49.990    -480.496
  O     -478.300      48.646    -482.127
  H     -477.251      50.737    -480.983
  H     -474.475      47.330    -483.323
  H     -476.192      47.089    -483.541
  H     -475.396      46.467    -482.115

 6  7  8  9  10  11  12  13  14  15  25  28  32  33  34  35 0
 6-311+G(2d,p)
 ****
 36  39  40 0
 6-311+G(2d,p)
 ****
 1  2  3  4  5  16  17  18  19  20  21  22  23  24 0
 3-21G
 ****
 26  27  29  30  31  37  38  41  42  43  44  45  46  47  48 0
 3-21G
 ****


