%nproc=1
%NoSave
%Mem=1900MB
#P OB98/GEN NMR

erre ene a

0 1
  C     -319.716     504.618      83.170
  O     -321.100     504.740      83.489
  P     -322.101     505.110      82.293
  C     -323.504     506.817      83.651
  O     -322.590     506.609      82.581
  C     -324.547     507.865      83.269
  O     -323.951     508.851      82.411
  C     -325.741     507.318      82.497
  O     -326.701     506.723      83.358
  C     -326.285     508.590      81.863
  O     -327.100     509.296      82.816
  C     -325.002     509.386      81.566
  N     -326.278     510.239      76.735
  C     -326.985     510.482      77.896
  N     -328.196     511.066      77.747
  N     -326.546     510.184      79.090
  C     -325.307     509.646      79.088
  C     -324.506     509.354      78.006
  C     -325.021     509.641      76.686
  O     -324.465     509.384      75.616
  N     -323.301     508.823      78.404
  C     -323.358     508.835      79.717
  N     -324.566     509.297      80.184
  O     -323.399     504.228      82.623
  O     -321.577     504.834      80.926
  H     -327.687     508.642      83.236
  H     -323.900     504.054      81.802
  H     -326.652     510.502      75.842
  H     -322.557     508.518      80.368
  H     -325.118     510.442      81.823
  H     -326.917     508.396      80.987
  H     -328.527     511.434      76.869
  H     -325.419     506.626      81.711
  H     -328.714     511.285      78.587
  H     -324.877     508.367      84.189
  H     -322.957     507.161      84.532
  H     -323.989     505.863      83.889
  P     -327.790     505.764      82.663
  C     -329.782     507.413      82.949
  O     -328.897     506.752      82.059
  O     -328.525     505.080      83.909
  O     -327.211     504.758      81.723
  H     -328.892     504.212      83.651
  H     -329.274     507.691      83.879
  H     -330.626     506.762      83.173
  H     -330.147     508.321      82.467
  H     -319.167     504.370      84.054
  H     -319.358     505.546      82.776
  H     -319.585     503.846      82.440

 3  4  5  6  7  8  9  10  11  12  23  26  30  31  33  0
 6-311+G(2d,p)
 ****
 35  36  37  38 0
 6-311+G(2d,p)
 ****
 1  2  13  14  15  16  17  18  19  20  21  22  24  25  27  28  29 0
 3-21G
 ****
 32  34  39  40  41  42  43  44  45  46  47  48  49 0
 3-21G
 ****


