%nproc=1
%NoSave
%Mem=1900MB
#P OB98/GEN NMR

erre ene a

0 1
  C      -44.332       2.364     109.498
  O      -44.879       3.169     110.550
  P      -44.020       4.312     111.278
  C      -44.946       6.299     109.941
  O      -44.798       5.720     111.234
  C      -45.947       7.463     109.911
  O      -47.163       7.125     110.636
  C      -45.428       8.779     110.509
  O      -46.079       9.825     109.786
  C      -45.956       8.708     111.935
  O      -45.993       9.968     112.590
  C      -47.331       8.089     111.692
  N      -50.239       8.786     115.855
  C      -50.041       9.551     114.759
  N      -49.284       9.281     113.675
  C      -48.723       8.064     113.773
  C      -48.842       7.163     114.823
  C      -49.633       7.574     115.912
  N      -49.802       6.818     117.052
  N      -48.095       6.026     114.582
  C      -47.529       6.237     113.408
  N      -47.882       7.456     112.875
  O      -42.595       4.389     110.825
  O      -44.070       3.913     112.832
  H      -46.335      10.631     111.960
  H      -43.175       3.984     113.213
  H      -50.556      10.509     114.753
  H      -46.846       5.565     112.911
  H      -48.053       8.843     111.347
  H      -45.309       8.045     112.526
  H      -44.344       8.884     110.461
  H      -46.243       7.615     108.862
  H      -45.278       5.514     109.243
  H      -50.311       7.233     117.814
  H      -49.260       5.971     117.167
  H      -43.967       6.652     109.599
  P      -45.254      10.872     108.893
  C      -44.043       9.784     106.915
  O      -45.271      10.307     107.390
  O      -43.897      11.215     109.419
  O      -46.198      12.164     108.812
  H      -45.662      12.943     108.556
  H      -43.362      10.604     106.663
  H      -44.233       9.185     106.022
  H      -43.573       9.142     107.671
  H      -45.072       1.670     109.158
  H      -43.482       1.828     109.865
  H      -44.034       2.993     108.686

 3  4  5  6  7  8  9  10  11  12  22  25  29  30  31  32 0
 6-311+G(2d,p)
 ****
 33  36  37 0
 6-311+G(2d,p)
 ****
 1  2  13  14  15  16  17  18  19  20  21  23  24  26 0
 3-21G
 ****
 27  28  34  35  38  39  40  41  42  43  44  45  46  47  48 0
 3-21G
 ****


