%nproc=1
%NoSave
%Mem=1900MB
#P OB98/GEN NMR

erre ene a

0 1
  C     -146.622     322.747    -225.738
  O     -145.327     323.322    -225.724
  P     -144.059     322.448    -225.279
  C     -143.674     321.830    -227.757
  O     -143.875     321.347    -226.430
  C     -142.323     321.381    -228.310
  O     -141.249     322.158    -227.735
  C     -141.984     319.929    -228.002
  O     -142.700     319.064    -228.877
  C     -140.479     319.928    -228.218
  O     -140.142     319.793    -229.604
  C     -140.081     321.320    -227.678
  N     -139.507     321.267    -226.342
  C     -138.139     321.558    -226.258
  O     -137.494     321.809    -227.268
  N     -137.534     321.523    -225.023
  C     -138.237     321.181    -223.970
  N     -137.573     321.155    -222.778
  C     -139.661     320.840    -224.034
  C     -140.233     320.897    -225.239
  O     -144.102     321.920    -223.882
  O     -142.826     323.445    -225.545
  H     -139.208     320.067    -229.680
  H     -142.781     324.147    -224.850
  H     -140.198     320.551    -223.137
  H     -141.279     320.648    -225.374
  H     -139.333     321.788    -228.355
  H     -139.987     319.099    -227.684
  H     -142.217     319.701    -226.962
  H     -142.326     321.553    -229.392
  H     -136.583     321.370    -222.780
  H     -143.705     322.934    -227.722
  H     -138.012     320.872    -221.914
  H     -144.492     321.485    -228.399
  P     -143.225     317.641    -228.338
  C     -145.623     318.202    -227.603
  O     -144.307     317.923    -227.186
  O     -142.152     316.662    -227.984
  O     -144.117     317.092    -229.544
  H     -143.902     316.150    -229.681
  H     -146.306     318.042    -226.776
  H     -145.910     317.543    -228.441
  H     -145.693     319.247    -227.934
  H     -147.334     323.478    -226.060
  H     -146.875     322.413    -224.753
  H     -146.636     321.915    -226.411

 3  4  5  6  7  8  9  10  11  12  13  23  27  28  29  30  32 0
 6-311+G(2d,p)
 ****
 34  35 0
 6-311+G(2d,p)
 ****
 1  2  14  15  16  17  18  19  20  21  22  24  25  26 0
 3-21G
 ****
 31  33  36  37  38  39  40  41  42  43  44  45  46 0
 3-21G
 ****


