%nproc=1
%NoSave
%Mem=1900MB
#P OB98/GEN NMR

erre ene a

0 1
  C     -127.896    -240.079    -166.762
  O     -126.779    -240.933    -166.586
  P     -125.857    -240.723    -165.291
  C     -124.864    -243.156    -165.440
  O     -124.632    -241.760    -165.428
  C     -123.753    -243.873    -166.203
  O     -123.897    -243.590    -167.629
  C     -122.329    -243.458    -165.805
  O     -121.499    -244.623    -165.900
  C     -121.959    -242.440    -166.867
  O     -120.559    -242.283    -167.010
  C     -122.644    -243.059    -168.100
  N     -122.868    -242.098    -169.182
  C     -122.645    -242.530    -170.485
  O     -122.255    -243.654    -170.779
  N     -122.871    -241.592    -171.464
  C     -123.216    -240.286    -171.269
  O     -123.384    -239.484    -172.181
  C     -123.392    -239.878    -169.865
  C     -123.225    -240.793    -168.907
  O     -126.772    -241.356    -164.147
  O     -125.448    -239.306    -165.061
  H     -127.284    -242.123    -164.450
  H     -120.198    -241.986    -166.152
  H     -122.754    -241.892    -172.422
  H     -123.653    -238.846    -169.664
  H     -123.346    -240.510    -167.865
  H     -122.055    -243.903    -168.475
  H     -122.395    -241.466    -166.619
  H     -122.288    -243.051    -164.785
  H     -123.886    -244.955    -166.076
  H     -125.828    -243.359    -165.927
  H     -124.930    -243.519    -164.411
  P     -120.222    -244.729    -164.924
  C     -119.305    -247.052    -165.702
  O     -119.143    -245.658    -165.659
  O     -120.815    -245.698    -163.787
  O     -119.736    -243.429    -164.380
  H     -121.259    -246.483    -164.152
  H     -118.680    -247.459    -166.505
  H     -120.347    -247.334    -165.901
  H     -118.990    -247.498    -164.758
  H     -128.407    -240.342    -167.664
  H     -127.563    -239.064    -166.824
  H     -128.561    -240.186    -165.931

 3  4  5  6  7  8  9  10  11  12  13  24  28  29  30  31  32 0
 6-311+G(2d,p)
 ****
 33  34 0
 6-311+G(2d,p)
 ****
 1  2  14  15  16  17  18  19  20  21  22  23  25  26  27 0
 3-21G
 ****
 35  36  37  38  39  40  41  42  43  44  45 0
 3-21G
 ****


