%nproc=1
%NoSave
%Mem=1900MB
#P OB98/GEN NMR

erre ene a

0 1
  C      -48.671      58.570      88.594
  O      -50.051      58.351      88.910
  P      -50.471      58.307      90.454
  C      -50.811      55.782      90.976
  O      -49.963      56.916      91.070
  C      -50.092      54.537      91.504
  O      -48.829      54.325      90.833
  C      -49.767      54.602      92.990
  O      -50.882      54.227      93.789
  C      -48.677      53.548      93.098
  O      -49.269      52.233      93.144
  C      -47.906      53.743      91.788
  N      -43.542      54.410      94.256
  C      -44.473      53.395      94.353
  N      -44.197      52.407      95.232
  N      -45.575      53.351      93.651
  C      -45.710      54.394      92.801
  C      -44.860      55.460      92.615
  C      -43.652      55.506      93.408
  O      -42.798      56.386      93.375
  N      -45.342      56.325      91.668
  C      -46.471      55.775      91.265
  N      -46.748      54.609      91.935
  O      -52.058      58.103      90.386
  O      -50.105      59.531      91.226
  H      -48.555      51.599      92.941
  H      -52.476      58.484      91.181
  H      -42.712      54.397      94.823
  H      -47.118      56.179      90.498
  H      -47.549      52.796      91.366
  H      -48.081      53.657      94.009
  H      -43.344      52.352      95.766
  H      -49.371      55.586      93.268
  H      -44.851      51.637      95.293
  H      -50.734      53.666      91.314
  H      -51.119      55.620      89.941
  H      -51.731      55.979      91.533
  P      -51.581      55.364      94.678
  C      -50.702      54.384      96.915
  O      -50.712      55.476      96.017
  O      -52.938      54.659      95.151
  O      -51.845      56.643      93.959
  H      -53.641      55.326      95.256
  H      -49.941      54.567      97.676
  H      -50.460      53.455      96.393
  H      -51.675      54.292      97.405
  H      -48.545      58.574      87.531
  H      -48.079      57.788      89.021
  H      -48.359      59.512      88.994

 3  4  5  6  7  8  9  10  11  12  23  26  30  31 0
 6-311+G(2d,p)
 ****
 33  35  36  37  38 0
 6-311+G(2d,p)
 ****
 1  2  13  14  15  16  17  18  19  20  21  22  24  25 0
 3-21G
 ****
 27  28  29  32  34  39  40  41  42  43  44  45  46  47  48  49 0
 3-21G
 ****


