%nproc=1
%NoSave
%Mem=1900MB
#P OB98/GEN NMR

erre ene a

0 1
  C      217.449     -53.816      66.830
  O      217.743     -52.721      65.982
  H      216.891     -53.452      67.698
  H      218.370     -54.287      67.182
  H      216.834     -54.552      66.305
  P      218.565     -53.004      64.636
  C      216.742     -51.831      63.230
  O      217.483     -53.027      63.458
  C      216.686     -51.527      61.736
  O      217.997     -51.189      61.239
  C      216.189     -52.693      60.881
  O      214.773     -52.763      60.913
  C      216.741     -52.296      59.522
  O      215.926     -51.251      58.955
  C      218.128     -51.743      59.903
  N      220.923     -54.884      57.069
  C      219.868     -54.061      56.711
  N      219.479     -54.123      55.419
  N      219.241     -53.270      57.544
  C      219.697     -53.373      58.815
  C      220.718     -54.161      59.291
  C      221.442     -54.984      58.354
  O      222.388     -55.714      58.629
  N      220.844     -54.040      60.659
  C      219.926     -53.157      60.990
  N      219.194     -52.727      59.915
  O      219.470     -54.198      64.650
  O      219.365     -51.643      64.377
  H      216.098     -51.248      57.996
  H      220.252     -51.676      64.774
  H      221.351     -55.479      56.384
  H      219.757     -52.786      62.001
  H      218.444     -50.928      59.243
  H      216.762     -53.118      58.809
  H      219.732     -54.900      54.821
  H      216.654     -53.643      61.179
  H      218.681     -53.567      55.143
  H      216.053     -50.642      61.597
  H      217.246     -51.025      63.767
  H      215.724     -51.936      63.622
  P      214.008     -54.174      60.775
  C      213.777     -54.225      63.351
  O      214.236     -54.897      62.188
  O      214.397     -54.982      59.588
  O      212.461     -53.790      60.831
  H      212.073     -53.585      59.940
  H      213.994     -54.818      64.215
  H      212.721     -54.071      63.280
  H      214.271     -53.279      63.435

 6  7  8  9  10  11  12  13  14  15  26  29  33  34 0
 6-311+G(2d,p)
 ****
 36  38  39  40  41 0
 6-311+G(2d,p)
 ****
 1  2  3  4  5  16  17  18  19  20  21  22  23  24  25 0
 3-21G
 ****
 27  28  30  31  32  35  37  42  43  44  45  46  47 0
 3-21G
 ****
 48  49 0
 3-21G
 ****


