%nproc=1
%NoSave
%Mem=1900MB
#P OB98/GEN NMR

erre ene a

0 1
  C       42.586      61.191    -119.614
  O       43.331      61.600    -120.743
  P       44.826      62.150    -120.591
  C       43.781      64.490    -120.678
  O       44.750      63.659    -120.054
  C       43.665      65.839    -119.971
  O       43.396      65.624    -118.562
  C       44.922      66.715    -120.083
  O       44.484      68.070    -120.229
  C       45.598      66.513    -118.740
  O       46.486      67.576    -118.414
  C       44.376      66.380    -117.822
  N       44.697      65.741    -116.556
  C       45.547      66.436    -115.694
  O       46.094      67.473    -116.069
  N       45.766      65.926    -114.438
  C       45.330      64.738    -114.145
  N       45.508      64.300    -112.869
  C       44.639      63.873    -115.124
  C       44.321      64.445    -116.281
  O       45.694      61.965    -121.795
  O       45.415      61.350    -119.335
  H       46.258      60.926    -119.594
  H       46.964      67.346    -117.590
  H       44.408      62.849    -114.874
  H       43.788      63.900    -117.055
  H       43.937      67.366    -117.619
  H       46.172      65.581    -118.751
  H       45.554      66.443    -120.934
  H       42.802      66.370    -120.391
  H       45.948      64.936    -112.216
  H       42.815      63.980    -120.632
  H       44.940      63.554    -112.469
  H       44.035      64.627    -121.737
  P       45.383      69.071    -121.108
  C       46.053      70.357    -118.955
  O       46.483      69.721    -120.140
  O       44.370      70.298    -121.334
  O       45.858      68.557    -122.428
  H       44.623      70.773    -122.148
  H       46.922      70.797    -118.458
  H       45.598      69.628    -118.276
  H       45.338      71.151    -119.180
  H       41.618      60.859    -119.927
  H       42.480      62.015    -118.939
  H       43.096      60.390    -119.121

 3  4  5  6  7  8  9  10  11  12  13  24  27  28  29  30  32 0
 6-311+G(2d,p)
 ****
 34  35 0
 6-311+G(2d,p)
 ****
 1  2  14  15  16  17  18  19  20  21  22  23  25  26 0
 3-21G
 ****
 31  33  36  37  38  39  40  41  42  43  44  45  46 0
 3-21G
 ****


