%nproc=1
%NoSave
%Mem=1900MB
#P OB98/GEN NMR

erre ene a

0 1
  C      -73.291     141.964    -270.361
  O      -71.985     141.524    -270.682
  H      -73.561     141.576    -269.376
  H      -74.011     141.586    -271.097
  H      -73.322     143.056    -270.333
  P      -71.411     141.959    -272.117
  C      -69.104     142.804    -272.932
  O      -69.870     142.308    -271.843
  C      -67.712     143.222    -272.462
  O      -67.789     144.442    -271.701
  C      -67.018     142.202    -271.567
  O      -66.388     141.200    -272.351
  C      -65.998     143.082    -270.864
  O      -64.858     143.282    -271.723
  C      -66.757     144.408    -270.683
  N      -65.938     145.336    -265.700
  C      -65.088     145.025    -266.704
  N      -65.382     144.737    -267.992
  C      -66.705     144.804    -268.208
  C      -67.689     145.104    -267.277
  C      -67.263     145.387    -265.969
  N      -68.131     145.702    -264.946
  N      -68.941     145.074    -267.859
  C      -68.708     144.819    -269.131
  N      -67.376     144.607    -269.387
  O      -72.202     142.994    -272.843
  O      -71.321     140.537    -272.852
  H      -64.462     144.140    -271.476
  H      -70.991     139.857    -272.238
  H      -64.036     144.999    -266.439
  H      -69.464     144.792    -269.909
  H      -66.102     145.277    -270.853
  H      -65.624     142.638    -269.938
  H      -67.702     141.780    -270.822
  H      -67.106     143.432    -273.355
  H      -69.613     143.660    -273.394
  H      -67.758     145.696    -264.008
  H      -69.118     145.610    -265.121
  H      -69.030     142.005    -273.678
  P      -65.964     139.793    -271.710
  C      -64.903     137.636    -272.630
  O      -65.445     138.914    -272.949
  O      -67.010     139.158    -270.860
  O      -64.618     140.112    -270.907
  H      -64.431     139.393    -270.273
  H      -64.593     137.146    -273.529
  H      -65.648     137.045    -272.140
  H      -64.061     137.758    -271.981

 6  7  8  9  10  11  12  13  14  15  25  28  32  33  34  35 0
 6-311+G(2d,p)
 ****
 36  39  40 0
 6-311+G(2d,p)
 ****
 1  2  3  4  5  16  17  18  19  20  21  22  23  24 0
 3-21G
 ****
 26  27  29  30  31  37  38  41  42  43  44  45  46  47 0
 3-21G
 ****
 48 0
 3-21G
 ****


