%nproc=1
%NoSave
%Mem=1900MB
#P OB98/GEN NMR

erre ene a

0 1
  C       16.291     378.479     267.013
  O       16.082     379.563     267.890
  H       16.159     377.548     267.570
  H       17.313     378.514     266.627
  H       15.583     378.494     266.181
  P       15.761     381.003     267.271
  C       18.133     381.941     267.678
  O       17.135     381.625     266.714
  C       19.541     381.687     267.140
  O       19.651     380.311     266.706
  C       19.874     382.559     265.929
  O       20.404     383.834     266.251
  C       20.910     381.707     265.199
  O       22.237     381.973     265.679
  C       20.490     380.272     265.544
  N       20.748     376.941     261.672
  C       21.774     377.458     262.439
  N       23.022     377.065     262.104
  N       21.584     378.295     263.425
  C       20.294     378.674     263.577
  C       19.197     378.242     262.866
  C       19.406     377.263     261.824
  O       18.530     376.762     261.126
  N       18.050     378.882     263.276
  C       18.468     379.753     264.173
  N       19.811     379.609     264.447
  O       15.472     381.909     268.564
  O       14.604     381.055     266.320
  H       22.841     381.319     265.267
  H       14.825     382.601     268.339
  H       20.952     376.281     260.947
  H       17.845     380.475     264.681
  H       21.361     379.653     265.798
  H       20.910     381.927     264.129
  H       23.230     376.492     261.302
  H       19.002     382.668     265.278
  H       23.811     377.565     262.514
  H       20.269     381.827     267.949
  H       17.941     381.306     268.542
  H       18.029     382.980     268.005
  P       19.588     385.167     265.920
  C       21.324     385.969     264.119
  O       19.989     385.655     264.454
  O       20.276     386.257     266.871
  O       18.111     385.088     266.135
  H       19.746     386.393     267.677
  H       21.373     386.272     263.094
  H       21.941     385.107     264.265
  H       21.671     386.766     264.744

 6  7  8  9  10  11  12  13  14  15  26  29  33  34 0
 6-311+G(2d,p)
 ****
 36  38  39  40  41 0
 6-311+G(2d,p)
 ****
 1  2  3  4  5  16  17  18  19  20  21  22  23  24  25 0
 3-21G
 ****
 27  28  30  31  32  35  37  42  43  44  45  46  47 0
 3-21G
 ****
 48  49 0
 3-21G
 ****


