%nproc=1
%NoSave
%Mem=1900MB
#P OB98/GEN NMR

erre ene a

0 1
  C     -123.627    -112.221     -66.227
  O     -124.707    -112.957     -66.768
  H     -123.714    -111.181     -66.556
  H     -122.674    -112.620     -66.584
  H     -123.656    -112.245     -65.135
  P     -124.800    -114.520     -66.432
  C     -126.898    -113.922     -65.050
  O     -125.665    -114.630     -65.086
  C     -127.062    -113.229     -63.701
  O     -126.049    -112.220     -63.528
  C     -128.409    -112.527     -63.526
  O     -129.410    -113.464     -63.159
  C     -128.065    -111.549     -62.414
  O     -128.020    -112.243     -61.153
  C     -126.652    -111.097     -62.825
  N     -127.095    -106.052     -63.065
  C     -127.260    -106.908     -61.991
  N     -127.638    -106.339     -60.827
  N     -127.089    -108.203     -62.061
  C     -126.781    -108.635     -63.305
  C     -126.608    -107.891     -64.448
  C     -126.745    -106.452     -64.347
  O     -126.591    -105.656     -65.270
  N     -126.367    -108.686     -65.539
  C     -126.354    -109.908     -65.046
  N     -126.617    -109.935     -63.697
  O     -123.501    -115.266     -66.377
  O     -125.782    -115.102     -67.552
  H     -127.403    -112.990     -61.269
  H     -125.284    -115.428     -68.324
  H     -127.259    -105.067     -62.952
  H     -126.161    -110.808     -65.621
  H     -126.020    -110.873     -61.958
  H     -128.790    -110.741     -62.315
  H     -128.051    -105.415     -60.792
  H     -128.688    -111.957     -64.417
  H     -127.812    -106.952     -60.043
  H     -126.906    -113.980     -62.916
  H     -127.701    -114.648     -65.208
  H     -126.932    -113.178     -65.853
  P     -130.499    -113.974     -64.226
  C     -130.409    -116.518     -63.783
  O     -130.017    -115.447     -64.633
  O     -130.724    -113.053     -65.378
  O     -131.806    -114.261     -63.359
  H     -132.392    -113.470     -63.256
  H     -130.023    -117.439     -64.168
  H     -131.477    -116.568     -63.742
  H     -130.022    -116.353     -62.799

 6  7  8  9  10  11  12  13  14  15  26  29  33  34 0
 6-311+G(2d,p)
 ****
 36  38  39  40  41 0
 6-311+G(2d,p)
 ****
 1  2  3  4  5  16  17  18  19  20  21  22  23  24  25 0
 3-21G
 ****
 27  28  30  31  32  35  37  42  43  44  45  46  47 0
 3-21G
 ****
 48  49 0
 3-21G
 ****


