%nproc=1
%NoSave
%Mem=1900MB
#P OB98/GEN NMR

erre ene a

0 1
  C       83.071      19.088     -78.732
  O       81.694      19.256     -79.031
  P       81.242      19.120     -80.564
  C       81.760      20.388     -82.758
  O       82.097      20.198     -81.390
  C       82.584      21.515     -83.370
  O       83.987      21.135     -83.351
  C       82.217      21.848     -84.825
  O       82.180      23.273     -84.989
  C       83.403      21.325     -85.619
  O       83.560      22.007     -86.859
  C       84.533      21.556     -84.617
  N       89.056      21.921     -86.832
  C       88.157      22.913     -86.494
  N       88.490      24.174     -86.849
  N       87.033      22.692     -85.868
  C       86.846      21.387     -85.546
  C       87.665      20.317     -85.818
  C       88.879      20.569     -86.566
  O       89.671      19.724     -86.975
  N       87.145      19.150     -85.319
  C       86.012      19.512     -84.748
  N       85.762      20.854     -84.903
  O       79.763      19.734     -80.553
  O       81.248      17.734     -81.109
  H       83.616      22.960     -86.655
  H       79.131      19.079     -80.911
  H       89.900      22.146     -87.331
  H       85.330      18.838     -84.246
  H       84.770      22.628     -84.547
  H       83.256      20.258     -85.823
  H       89.357      24.420     -87.301
  H       81.271      21.414     -85.160
  H       87.853      24.918     -86.591
  H       82.486      22.404     -82.734
  H       80.697      20.639     -82.835
  H       81.942      19.453     -83.299
  P       81.014      23.842     -85.936
  C       80.778      24.059     -88.522
  O       81.638      23.900     -87.409
  O       80.906      25.380     -85.506
  O       79.716      23.116     -85.800
  H       80.018      25.728     -85.708
  H       79.753      24.291     -88.220
  H       80.775      23.134     -89.103
  H       81.155      24.872     -89.147
  H       83.224      19.205     -77.680
  H       83.643      19.823     -79.260
  H       83.384      18.110     -79.031

 3  4  5  6  7  8  9  10  11  12  23  26  30  31  33  0
 6-311+G(2d,p)
 ****
 35  36  37  38 0
 6-311+G(2d,p)
 ****
 1  2  13  14  15  16  17  18  19  20  21  22  24  25  27  28  29 0
 3-21G
 ****
 32  34  39  40  41  42  43  44  45  46  47  48  49 0
 3-21G
 ****


