%nproc=1
%NoSave
%Mem=1900MB
#P OB98/GEN NMR

erre ene a

0 1
  C      -31.755      40.226       2.522
  O      -32.348      38.944       2.481
  H      -30.669      40.109       2.534
  H      -32.063      40.758       3.426
  H      -32.041      40.800       1.637
  P      -33.952      38.895       2.571
  C      -33.536      38.797       5.144
  O      -34.258      39.383       4.072
  C      -33.023      39.883       6.083
  O      -32.330      40.913       5.341
  C      -34.114      40.614       6.861
  O      -34.613      39.874       7.961
  C      -33.337      41.839       7.310
  O      -32.448      41.480       8.383
  C      -32.554      42.177       6.024
  N      -33.264      43.115       5.150
  C      -32.945      44.470       5.293
  O      -32.110      44.836       6.117
  N      -33.610      45.390       4.518
  C      -34.498      44.993       3.660
  N      -35.124      45.950       2.924
  C      -34.856      43.577       3.468
  C      -34.209      42.702       4.235
  O      -34.271      37.328       2.640
  O      -34.692      39.632       1.507
  H      -31.841      42.234       8.506
  H      -35.228      37.188       2.846
  H      -35.613      43.295       2.750
  H      -34.418      41.642       4.149
  H      -31.570      42.599       6.262
  H      -33.973      42.643       7.681
  H      -34.930      40.935       6.204
  H      -32.294      39.422       6.760
  H      -34.901      46.917       3.121
  H      -32.694      38.234       4.725
  H      -35.930      45.758       2.344
  H      -34.180      38.111       5.701
  P      -36.160      39.447       7.919
  C      -36.597      41.395       9.589
  O      -37.006      40.715       8.410
  O      -36.288      38.421       9.138
  O      -36.610      38.840       6.627
  H      -36.937      37.719       8.938
  H      -37.262      42.212       9.778
  H      -35.602      41.767       9.459
  H      -36.619      40.718      10.417

 6  7  8  9  10  11  12  13  14  15  16  26  30  31  32  33  35 0
 6-311+G(2d,p)
 ****
 37  38 0
 6-311+G(2d,p)
 ****
 1  2  3  4  5  17  18  19  20  21  22  23  24  25 0
 3-21G
 ****
 27  28  29  34  36  39  40  41  42  43  44  45  46 0
 3-21G
 ****


