%nproc=1
%NoSave
%Mem=1900MB
#P OB98/GEN NMR

erre ene a

0 1
  C     -429.086     678.984     125.583
  O     -428.937     677.676     125.059
  H     -429.715     679.561     124.903
  H     -428.113     679.481     125.673
  H     -429.568     678.941     126.560
  P     -427.829     676.719     125.721
  C     -429.509     675.846     127.480
  O     -428.286     676.539     127.259
  C     -429.402     674.901     128.678
  O     -429.112     675.642     129.884
  C     -430.686     674.142     128.986
  O     -431.063     673.204     128.004
  C     -430.432     673.673     130.410
  O     -429.650     672.483     130.461
  C     -429.633     674.872     130.995
  N     -430.435     675.689     131.893
  C     -430.991     675.031     132.983
  O     -430.848     673.820     133.196
  N     -431.742     675.803     133.822
  C     -432.031     677.114     133.656
  O     -432.734     677.758     134.437
  C     -431.446     677.753     132.466
  C     -430.681     677.027     131.644
  O     -426.400     677.160     125.560
  O     -428.133     675.283     125.089
  H     -430.205     671.763     130.123
  H     -427.375     674.663     125.226
  H     -432.140     675.342     134.627
  H     -431.662     678.807     132.288
  H     -430.243     677.468     130.764
  H     -428.762     674.504     131.547
  H     -431.369     673.468     130.940
  H     -431.506     674.869     129.035
  H     -428.568     674.217     128.496
  H     -429.731     675.261     126.574
  H     -430.314     676.574     127.640
  P     -432.575     672.920     127.596
  C     -432.319     674.222     125.336
  O     -433.046     674.043     126.548
  O     -433.520     672.545     128.698
  O     -432.410     671.624     126.637
  H     -433.199     671.064     126.772
  H     -432.769     675.006     124.763
  H     -432.336     673.313     124.772
  H     -431.306     674.482     125.563

 6  7  8  9  10  11  12  13  14  15  16  26  31  32  33  34  35 0
 6-311+G(2d,p)
 ****
 36  37 0
 6-311+G(2d,p)
 ****
 1  2  3  4  5  17  18  19  20  21  22  23  24  25 0
 3-21G
 ****
 27  28  29  30  38  39  40  41  42  43  44  45 0
 3-21G
 ****


