%nproc=1
%NoSave
%Mem=1900MB
#P OB98/GEN NMR

erre ene a

0 1
  C     -471.929    -493.300    -296.625
  O     -471.767    -494.522    -295.936
  H     -471.495    -492.497    -296.021
  H     -472.992    -493.092    -296.774
  H     -471.417    -493.337    -297.593
  P     -472.181    -495.858    -296.724
  C     -473.932    -496.743    -294.973
  O     -472.678    -496.921    -295.624
  C     -473.969    -497.556    -293.678
  O     -473.841    -498.958    -293.943
  C     -472.815    -497.259    -292.727
  O     -472.931    -495.992    -292.111
  C     -472.950    -498.421    -291.766
  O     -473.996    -498.202    -290.814
  C     -473.322    -499.583    -292.734
  N     -472.201    -500.467    -293.003
  C     -472.527    -501.813    -293.220
  O     -473.697    -502.186    -293.181
  N     -471.499    -502.705    -293.437
  C     -470.278    -502.288    -293.470
  N     -469.311    -503.227    -293.687
  C     -469.891    -500.874    -293.276
  C     -470.899    -500.032    -293.036
  O     -470.769    -496.451    -297.172
  O     -473.154    -495.660    -297.834
  H     -473.936    -498.937    -290.167
  H     -470.135    -496.556    -296.445
  H     -468.856    -500.567    -293.316
  H     -470.701    -498.982    -292.884
  H     -474.145    -500.181    -292.309
  H     -472.030    -498.589    -291.196
  H     -471.859    -497.357    -293.254
  H     -474.942    -497.385    -293.199
  H     -469.611    -504.188    -293.794
  H     -474.758    -497.022    -295.632
  H     -468.319    -503.027    -293.691
  H     -474.036    -495.672    -294.748
  P     -471.627    -495.081    -291.873
  C     -473.098    -494.243    -289.923
  O     -472.076    -493.913    -290.863
  O     -470.939    -494.610    -293.108
  O     -470.710    -495.998    -290.927
  H     -471.116    -496.254    -290.076
  H     -473.308    -493.391    -289.311
  H     -472.767    -495.052    -289.306
  H     -473.984    -494.533    -290.447

 6  7  8  9  10  11  12  13  14  15  16  26  30  31  32  33  35 0
 6-311+G(2d,p)
 ****
 37  38 0
 6-311+G(2d,p)
 ****
 1  2  3  4  5  17  18  19  20  21  22  23  24  25 0
 3-21G
 ****
 27  28  29  34  36  39  40  41  42  43  44  45  46 0
 3-21G
 ****


