%nproc=1
%NoSave
%Mem=1900MB
#P OB98/GEN NMR

erre ene a

0 1
  C      154.528     -81.936      -6.124
  O      153.156     -81.615      -6.228
  P      152.020     -82.572      -5.622
  C      151.239     -82.839      -8.057
  O      150.845     -82.598      -6.715
  C      150.059     -82.691      -9.020
  O      150.518     -82.890     -10.385
  C      148.905     -83.670      -8.771
  O      147.703     -82.971      -9.111
  C      149.185     -84.768      -9.779
  O      148.042     -85.568     -10.053
  C      149.716     -83.945     -10.961
  N      150.473     -84.762     -11.901
  C      149.737     -85.465     -12.857
  O      148.504     -85.441     -12.833
  N      150.407     -86.224     -13.784
  C      151.694     -86.351     -13.695
  N      152.305     -87.110     -14.643
  C      152.496     -85.728     -12.625
  C      151.831     -84.943     -11.779
  O      151.584     -82.239      -4.236
  O      152.650     -84.036      -5.759
  H      148.287     -86.235     -10.730
  H      153.324     -84.190      -5.049
  H      153.558     -85.908     -12.559
  H      152.333     -84.443     -10.964
  H      148.888     -83.469     -11.504
  H      149.970     -85.430      -9.395
  H      148.859     -84.043      -7.746
  H      149.694     -81.658      -8.949
  H      151.719     -87.507     -15.368
  H      151.617     -83.864      -8.121
  H      153.306     -87.206     -14.714
  H      152.055     -82.165      -8.334
  P      146.495     -82.835      -8.067
  C      145.318     -84.738      -9.306
  O      145.192     -83.432      -8.778
  O      146.321     -81.474      -7.476
  O      146.823     -83.922      -6.936
  H      146.287     -83.738      -6.142
  H      144.321     -85.139      -9.504
  H      145.832     -85.399      -8.602
  H      145.880     -84.702     -10.244
  H      155.110     -81.169      -6.591
  H      154.713     -82.871      -6.611
  H      154.799     -82.011      -5.092

 3  4  5  6  7  8  9  10  11  12  13  23  27  28  29  30  32 0
 6-311+G(2d,p)
 ****
 34  35 0
 6-311+G(2d,p)
 ****
 1  2  14  15  16  17  18  19  20  21  22  24  25  26 0
 3-21G
 ****
 31  33  36  37  38  39  40  41  42  43  44  45  46 0
 3-21G
 ****


