%nproc=1
%NoSave
%Mem=1900MB
#P OB98/GEN NMR

erre ene a

0 1
  C     -296.544    -505.760     497.911
  O     -297.460    -504.744     497.561
  H     -295.820    -505.349     498.625
  H     -296.006    -506.115     497.030
  H     -297.072    -506.594     498.387
  P     -298.560    -505.060     496.435
  C     -297.382    -503.790     494.508
  O     -297.791    -505.051     495.026
  C     -296.245    -503.963     493.491
  O     -295.103    -504.570     494.166
  C     -296.605    -504.874     492.298
  O     -295.847    -504.424     491.169
  C     -296.093    -506.219     492.786
  O     -296.022    -507.153     491.737
  C     -294.785    -505.785     493.457
  N     -294.255    -506.813     494.345
  C     -293.379    -507.734     493.777
  O     -293.104    -507.672     492.570
  N     -292.858    -508.730     494.559
  C     -293.232    -508.832     495.800
  N     -292.692    -509.847     496.521
  C     -294.207    -507.910     496.432
  C     -294.666    -506.928     495.652
  O     -299.792    -504.217     496.481
  O     -298.900    -506.606     496.649
  H     -296.922    -507.374     491.400
  H     -299.765    -506.698     497.085
  H     -294.495    -508.054     497.463
  H     -295.382    -506.203     496.025
  H     -294.028    -505.549     492.700
  H     -296.775    -506.642     493.531
  H     -297.674    -504.865     492.068
  H     -295.926    -502.971     493.146
  H     -292.046    -510.461     496.042
  H     -297.041    -503.183     495.346
  H     -292.916    -510.045     497.491
  H     -298.235    -503.292     494.027
  P     -296.376    -503.297     490.161
  C     -297.104    -504.864     488.248
  O     -297.527    -503.903     489.219
  O     -295.293    -502.590     489.412
  O     -297.176    -502.253     491.093
  H     -297.106    -501.351     490.703
  H     -297.950    -505.196     487.682
  H     -296.657    -505.700     488.745
  H     -296.389    -504.416     487.591

 6  7  8  9  10  11  12  13  14  15  16  26  30  31  32  33  35 0
 6-311+G(2d,p)
 ****
 37  38 0
 6-311+G(2d,p)
 ****
 1  2  3  4  5  17  18  19  20  21  22  23  24  25 0
 3-21G
 ****
 27  28  29  34  36  39  40  41  42  43  44  45  46 0
 3-21G
 ****


