%nproc=1
%NoSave
%Mem=1900MB
#P OB98/GEN NMR

erre ene a

0 1
  C     -771.134     348.255    -258.078
  O     -771.909     349.281    -257.473
  P     -771.555     349.828    -256.003
  C     -772.905     348.520    -254.248
  O     -771.719     348.555    -255.039
  C     -772.563     348.129    -252.810
  O     -771.867     346.863    -252.833
  C     -771.629     349.082    -252.064
  O     -772.280     350.196    -251.458
  C     -771.091     348.164    -250.976
  O     -772.070     348.028    -249.930
  C     -770.928     346.841    -251.727
  N     -766.509     344.356    -251.020
  C     -767.690     344.309    -250.361
  N     -768.817     345.019    -250.602
  C     -768.658     345.812    -251.672
  C     -767.520     345.961    -252.445
  C     -766.403     345.185    -252.087
  N     -765.206     345.218    -252.779
  N     -767.732     346.887    -253.454
  C     -768.980     347.269    -253.293
  N     -769.584     346.645    -252.232
  O     -772.310     351.052    -255.603
  O     -769.977     350.049    -256.036
  H     -772.917     347.807    -250.365
  H     -769.706     350.624    -255.287
  H     -767.736     343.614    -249.525
  H     -769.490     348.000    -253.907
  H     -771.184     345.970    -251.110
  H     -770.179     348.541    -250.513
  H     -770.798     349.409    -252.702
  H     -773.498     347.986    -252.259
  H     -773.576     347.766    -254.673
  H     -764.511     344.534    -252.527
  H     -765.183     345.709    -253.659
  H     -773.405     349.490    -254.286
  P     -771.546     351.623    -251.560
  C     -769.909     350.938    -249.641
  O     -770.079     351.401    -250.960
  O     -772.314     352.751    -250.982
  O     -771.284     351.765    -253.137
  H     -770.644     351.142    -253.512
  H     -768.856     350.697    -249.477
  H     -770.499     350.038    -249.466
  H     -770.205     351.717    -248.927
  H     -771.529     348.035    -259.048
  H     -771.170     347.375    -257.470
  H     -770.120     348.583    -258.172

 3  4  5  6  7  8  9  10  11  12  22  25  29  30  31  32 0
 6-311+G(2d,p)
 ****
 33  36  37 0
 6-311+G(2d,p)
 ****
 1  2  13  14  15  16  17  18  19  20  21  23  24  26 0
 3-21G
 ****
 27  28  34  35  38  39  40  41  42  43  44  45  46  47  48 0
 3-21G
 ****


