%nproc=1
%NoSave
%Mem=1900MB
#P OB98/GEN NMR

erre ene a

0 1
  C      -33.245     -17.638      -9.115
  O      -32.051     -18.415      -9.244
  P      -31.891     -19.272     -10.588
  C      -32.253     -21.741     -11.309
  O      -32.441     -20.751     -10.306
  C      -32.341     -23.137     -10.692
  O      -31.081     -23.549     -10.121
  C      -33.347     -23.232      -9.553
  O      -34.676     -23.252     -10.046
  C      -32.900     -24.527      -8.883
  O      -33.392     -25.666      -9.609
  C      -31.371     -24.447      -9.022
  N      -30.509     -25.381      -4.067
  C      -31.216     -26.052      -5.002
  N      -31.399     -25.735      -6.301
  C      -30.750     -24.602      -6.611
  C      -29.987     -23.813      -5.766
  C      -29.878     -24.241      -4.432
  N      -29.170     -23.550      -3.475
  N      -29.479     -22.724      -6.443
  C      -29.947     -22.841      -7.669
  N      -30.710     -23.967      -7.823
  O      -30.309     -19.472     -10.713
  O      -32.460     -18.604     -11.796
  H      -34.369     -25.646      -9.553
  H      -29.961     -18.929     -11.444
  H      -31.700     -26.963      -4.663
  H      -29.762     -22.141      -8.475
  H      -30.926     -25.417      -9.268
  H      -33.251     -24.620      -7.851
  H      -33.219     -22.389      -8.863
  H      -32.612     -23.844     -11.487
  H      -31.281     -21.611     -11.791
  H      -29.208     -23.883      -2.525
  H      -28.770     -22.654      -3.715
  H      -33.011     -21.604     -12.087
  P      -35.655     -22.063      -9.602
  C      -36.831     -21.560      -7.374
  O      -35.756     -22.231      -8.006
  O      -37.071     -22.607     -10.101
  O      -35.264     -20.710     -10.088
  H      -37.202     -23.544      -9.867
  H      -36.802     -21.785      -6.305
  H      -37.784     -21.902      -7.784
  H      -36.730     -20.481      -7.511
  H      -33.232     -17.116      -8.181
  H      -34.097     -18.285      -9.150
  H      -33.300     -16.932      -9.917

 3  4  5  6  7  8  9  10  11  12  22  25  29  30  31  32 0
 6-311+G(2d,p)
 ****
 33  36  37 0
 6-311+G(2d,p)
 ****
 1  2  13  14  15  16  17  18  19  20  21  23  24  26 0
 3-21G
 ****
 27  28  34  35  38  39  40  41  42  43  44  45  46  47  48 0
 3-21G
 ****


