%nproc=1
%NoSave
%Mem=1900MB
#P OB98/GEN NMR

erre ene a

0 1
  C      -52.270    -903.678     222.323
  O      -53.276    -904.619     222.679
  P      -54.710    -904.611     221.943
  C      -54.518    -907.091     221.218
  O      -54.594    -905.722     220.798
  C      -55.425    -907.945     220.339
  O      -55.018    -907.831     218.964
  C      -55.387    -909.430     220.661
  O      -56.131    -909.721     221.833
  C      -55.934    -910.026     219.370
  O      -57.382    -909.917     219.351
  C      -55.338    -909.080     218.310
  N      -54.155    -909.649     217.659
  C      -54.058    -909.476     216.274
  O      -54.926    -908.878     215.647
  N      -52.942    -909.979     215.624
  C      -52.021    -910.603     216.299
  N      -50.923    -911.019     215.619
  C      -52.119    -910.848     217.750
  C      -53.186    -910.346     218.366
  O      -55.146    -903.261     221.461
  O      -55.707    -905.288     222.998
  H      -57.716    -910.689     219.864
  H      -56.109    -904.638     223.627
  H      -51.323    -911.380     218.263
  H      -53.315    -910.460     219.430
  H      -56.074    -908.853     217.539
  H      -55.683    -911.073     219.230
  H      -54.349    -909.766     220.811
  H      -56.457    -907.564     220.428
  H      -50.825    -910.666     214.667
  H      -54.868    -907.140     222.262
  H      -50.058    -911.243     216.098
  H      -53.487    -907.423     221.170
  P      -55.336    -910.343     223.082
  C      -56.445    -908.664     224.703
  O      -55.246    -909.178     224.187
  O      -53.849    -910.499     222.533
  O      -55.893    -911.650     223.590
  H      -53.666    -911.428     222.275
  H      -56.220    -908.064     225.603
  H      -57.130    -909.475     225.006
  H      -56.945    -908.025     223.966
  H      -51.398    -903.845     222.920
  H      -52.634    -902.686     222.492
  H      -52.022    -903.795     221.289

 3  4  5  6  7  8  9  10  11  12  13  23  27  28  29  30  32 0
 6-311+G(2d,p)
 ****
 34  35 0
 6-311+G(2d,p)
 ****
 1  2  14  15  16  17  18  19  20  21  22  24  25  26 0
 3-21G
 ****
 31  33  36  37  38  39  40  41  42  43  44  45  46 0
 3-21G
 ****


