%nproc=1
%NoSave
%Mem=1900MB
#P OB98/GEN NMR

erre ene a

0 1
  C      100.658    -170.416       0.782
  O       99.512    -169.721       1.228
  H      100.719    -170.330      -0.307
  H      100.577    -171.474       1.046
  H      101.564    -169.990       1.220
  P       99.346    -169.552       2.816
  C       97.746    -171.591       2.940
  O       98.955    -170.997       3.393
  C       97.578    -172.978       3.558
  O       98.584    -173.882       3.047
  C       97.710    -173.009       5.077
  O       96.499    -172.640       5.721
  C       98.024    -174.479       5.299
  O       96.816    -175.258       5.184
  C       98.965    -174.783       4.125
  N      103.056    -176.806       6.327
  C      101.769    -177.297       6.231
  N      101.531    -178.493       6.810
  N      100.795    -176.669       5.623
  C      101.173    -175.478       5.101
  C      102.414    -174.886       5.131
  C      103.485    -175.595       5.800
  O      104.649    -175.219       5.895
  N      102.416    -173.681       4.482
  C      101.173    -173.529       4.077
  N      100.372    -174.590       4.432
  O       97.984    -168.716       2.961
  O      100.478    -168.866       3.508
  H       97.086    -176.198       5.199
  H       98.071    -168.105       3.719
  H      103.766    -177.328       6.818
  H      100.799    -172.679       3.524
  H       98.854    -175.807       3.755
  H       98.438    -174.678       6.289
  H      102.222    -179.009       7.337
  H       98.555    -172.400       5.420
  H      100.602    -178.891       6.722
  H       96.600    -173.368       3.246
  H       97.775    -171.682       1.850
  H       96.907    -170.948       3.224
  P       96.601    -171.678       7.007
  C       96.855    -173.719       8.598
  O       97.428    -172.510       8.100
  O       95.108    -171.688       7.585
  O       97.086    -170.296       6.723
  H       94.956    -170.890       8.120
  H       97.517    -174.159       9.314
  H       96.701    -174.401       7.788
  H       95.917    -173.503       9.065

 6  7  8  9  10  11  12  13  14  15  26  29  33  34 0
 6-311+G(2d,p)
 ****
 36  38  39  40  41 0
 6-311+G(2d,p)
 ****
 1  2  3  4  5  16  17  18  19  20  21  22  23  24  25 0
 3-21G
 ****
 27  28  30  31  32  35  37  42  43  44  45  46  47 0
 3-21G
 ****
 48  49 0
 3-21G
 ****


