%nproc=1
%NoSave
%Mem=1900MB
#P OB98/GEN NMR

erre ene a

0 1
  C     1289.444     656.430     550.241
  O     1290.305     655.725     551.114
  H     1289.818     656.322     549.218
  H     1289.449     657.488     550.506
  H     1288.427     656.040     550.284
  P     1289.769     655.333     552.574
  C     1289.270     652.910     551.858
  O     1288.746     654.106     552.413
  C     1289.541     651.842     552.928
  O     1288.328     651.619     553.696
  C     1289.940     650.500     552.325
  O     1291.328     650.357     552.075
  C     1289.491     649.520     553.417
  O     1290.512     649.315     554.407
  C     1288.282     650.228     554.038
  N     1284.248     647.255     555.133
  C     1285.428     647.408     555.841
  N     1285.565     646.648     556.953
  N     1286.387     648.227     555.473
  C     1286.156     648.845     554.286
  C     1285.029     648.747     553.494
  C     1283.948     647.912     553.952
  O     1282.867     647.748     553.374
  N     1285.170     649.489     552.328
  C     1286.390     649.950     552.394
  N     1287.006     649.649     553.581
  O     1288.792     656.553     552.943
  O     1290.826     655.163     553.624
  H     1291.220     648.772     554.001
  H     1288.796     656.691     553.918
  H     1283.541     646.649     555.474
  H     1286.891     650.546     551.628
  H     1288.282     650.163     555.128
  H     1289.266     648.541     552.986
  H     1284.901     645.960     557.233
  H     1289.375     650.286     551.413
  H     1286.492     646.596     557.378
  H     1290.300     652.220     553.626
  H     1290.204     653.170     551.353
  H     1288.583     652.513     551.086
  P     1291.899     649.162     551.196
  C     1293.310     650.537     549.449
  O     1292.195     649.714     549.728
  O     1290.609     648.234     550.971
  O     1293.044     648.406     551.775
  H     1290.622     647.491     551.602
  H     1293.316     650.790     548.409
  H     1294.210     650.013     549.694
  H     1293.248     651.431     550.033

 6  7  8  9  10  11  12  13  14  15  26  29  33  34 0
 6-311+G(2d,p)
 ****
 36  38  39  40  41 0
 6-311+G(2d,p)
 ****
 1  2  3  4  5  16  17  18  19  20  21  22  23  24  25 0
 3-21G
 ****
 27  28  30  31  32  35  37  42  43  44  45  46  47 0
 3-21G
 ****
 48  49 0
 3-21G
 ****


