%nproc=1
%NoSave
%Mem=1900MB
#P OB98/GEN NMR

erre ene a

0 1
  C       -3.095     173.180     -25.389
  O       -1.947     173.750     -24.792
  P       -1.905     173.986     -23.210
  C       -2.444     176.498     -23.259
  O       -2.891     175.204     -22.871
  C       -3.485     177.552     -22.889
  O       -4.701     177.344     -23.636
  C       -3.897     177.527     -21.423
  O       -2.903     178.118     -20.609
  C       -5.216     178.289     -21.473
  O       -4.981     179.707     -21.481
  C       -5.792     177.832     -22.822
  N      -10.785     176.964     -22.257
  C      -10.058     178.100     -22.208
  N       -8.721     178.245     -22.329
  C       -8.131     177.049     -22.496
  C       -8.737     175.804     -22.530
  C      -10.139     175.785     -22.428
  N      -10.897     174.641     -22.537
  N       -7.790     174.810     -22.686
  C       -6.637     175.445     -22.732
  N       -6.800     176.800     -22.688
  O       -0.539     174.095     -22.617
  O       -2.681     172.719     -22.615
  H       -4.471     179.919     -20.676
  H       -2.080     172.215     -22.034
  H      -10.625     179.015     -22.060
  H       -5.666     174.973     -22.816
  H       -6.248     178.664     -23.372
  H       -5.861     178.071     -20.617
  H       -4.090     176.495     -21.107
  H       -3.086     178.538     -23.162
  H       -2.287     176.498     -24.343
  H      -11.897     174.758     -22.593
  H      -10.471     173.821     -22.961
  H       -1.492     176.717     -22.766
  P       -2.200     177.257     -19.455
  C       -3.830     177.970     -17.610
  O       -3.335     176.895     -18.385
  O       -0.948     177.838     -18.887
  O       -1.916     175.846     -20.163
  H       -1.105     175.454     -19.788
  H       -3.116     178.211     -16.817
  H       -4.778     177.668     -17.156
  H       -4.000     178.854     -18.232
  H       -2.944     173.098     -26.445
  H       -3.944     173.803     -25.197
  H       -3.266     172.207     -24.977

 3  4  5  6  7  8  9  10  11  12  22  25  29  30  31  32 0
 6-311+G(2d,p)
 ****
 33  36  37 0
 6-311+G(2d,p)
 ****
 1  2  13  14  15  16  17  18  19  20  21  23  24  26 0
 3-21G
 ****
 27  28  34  35  38  39  40  41  42  43  44  45  46  47  48 0
 3-21G
 ****


