%nproc=1
%NoSave
%Mem=1900MB
#P OB98/GEN NMR

erre ene a

0 1
  C     -297.033     161.669      78.382
  O     -298.009     161.616      79.413
  P     -297.991     162.778      80.519
  C     -296.244     163.548      82.281
  O     -296.753     162.480      81.494
  C     -294.909     163.165      82.925
  O     -293.933     162.926      81.874
  C     -294.321     164.234      83.863
  O     -293.653     163.534      84.921
  C     -293.329     164.940      82.954
  O     -292.371     165.722      83.647
  C     -292.783     163.754      82.169
  N     -288.859     162.741      79.049
  C     -289.311     162.115      80.157
  N     -290.370     162.439      80.935
  C     -290.993     163.529      80.455
  C     -290.637     164.283      79.347
  C     -289.514     163.848      78.625
  N     -289.048     164.499      77.499
  N     -291.498     165.351      79.181
  C     -292.360     165.245      80.173
  N     -292.108     164.147      80.956
  O     -299.265     162.436      81.422
  O     -298.047     164.173      79.971
  H     -291.608     165.909      83.061
  H     -299.729     163.247      81.702
  H     -288.753     161.238      80.466
  H     -293.169     165.936      80.376
  H     -292.083     163.158      82.765
  H     -293.879     165.624      82.292
  H     -295.081     164.896      84.296
  H     -295.045     162.219      83.466
  H     -296.957     163.782      83.082
  H     -288.129     164.228      77.175
  H     -289.410     165.426      77.317
  H     -296.138     164.442      81.655
  P     -292.862     164.379      86.034
  C     -290.540     165.473      86.071
  O     -291.553     164.900      85.263
  O     -292.263     163.198      86.935
  O     -293.672     165.386      86.779
  H     -291.798     162.539      86.392
  H     -289.673     165.692      85.438
  H     -290.240     164.771      86.855
  H     -290.896     166.406      86.511
  H     -297.165     160.837      77.722
  H     -296.055     161.629      78.814
  H     -297.144     162.581      77.833

 3  4  5  6  7  8  9  10  11  12  22  25  29  30  31  32 0
 6-311+G(2d,p)
 ****
 33  36  37 0
 6-311+G(2d,p)
 ****
 1  2  13  14  15  16  17  18  19  20  21  23  24  26 0
 3-21G
 ****
 27  28  34  35  38  39  40  41  42  43  44  45  46  47  48 0
 3-21G
 ****


