%nproc=1
%NoSave
%Mem=1900MB
#P OB98/GEN NMR

erre ene a

0 1
  C      258.287    -494.180    -813.376
  O      259.354    -493.318    -813.064
  P      260.764    -493.889    -812.546
  C      260.411    -492.453    -810.421
  O      261.307    -492.819    -811.482
  C      261.145    -491.586    -809.378
  O      262.091    -492.365    -808.645
  C      261.915    -490.420    -809.980
  O      261.041    -489.367    -810.367
  C      262.864    -490.075    -808.831
  O      262.213    -489.247    -807.856
  C      263.165    -491.487    -808.243
  N      264.460    -491.983    -808.650
  C      265.572    -491.487    -807.939
  O      265.402    -490.650    -807.042
  N      266.845    -491.923    -808.270
  C      266.977    -492.746    -809.260
  N      268.253    -493.145    -809.567
  C      265.855    -493.286    -810.065
  C      264.643    -492.850    -809.707
  O      261.734    -494.279    -813.614
  O      260.330    -495.123    -811.600
  H      261.949    -488.428    -808.339
  H      260.027    -495.901    -812.154
  H      266.018    -493.964    -810.878
  H      263.737    -493.196    -810.245
  H      263.136    -491.447    -807.133
  H      263.758    -489.556    -809.193
  H      262.490    -490.775    -810.848
  H      260.374    -491.209    -808.676
  H      268.997    -492.722    -809.015
  H      260.081    -493.375    -809.948
  H      268.486    -493.756    -810.336
  H      259.548    -491.944    -810.849
  P      260.473    -489.311    -811.862
  C      261.185    -486.835    -811.893
  O      260.147    -487.777    -812.196
  O      259.357    -490.260    -812.161
  O      261.760    -489.621    -812.781
  H      261.503    -490.238    -813.471
  H      260.982    -485.906    -812.444
  H      262.165    -487.225    -812.159
  H      261.159    -486.609    -810.803
  H      257.446    -493.604    -813.700
  H      258.019    -494.745    -812.508
  H      258.584    -494.847    -814.158

 3  4  5  6  7  8  9  10  11  12  13  23  27  28  29  30  32 0
 6-311+G(2d,p)
 ****
 34  35 0
 6-311+G(2d,p)
 ****
 1  2  14  15  16  17  18  19  20  21  22  24  25  26 0
 3-21G
 ****
 31  33  36  37  38  39  40  41  42  43  44  45  46 0
 3-21G
 ****


