%nproc=1
%NoSave
%Mem=1900MB
#P OB98/GEN NMR

erre ene a

0 1
  C     -242.999    -891.640     304.685
  O     -243.034    -890.480     303.855
  P     -244.287    -890.330     302.854
  C     -245.210    -891.980     301.063
  O     -244.070    -891.430     301.714
  C     -244.871    -893.290     300.381
  O     -244.782    -894.350     301.354
  C     -245.897    -893.750     299.350
  O     -245.753    -893.010     298.155
  C     -245.553    -895.220     299.231
  O     -244.507    -895.430     298.249
  C     -245.058    -895.590     300.644
  N     -246.012    -896.410     301.377
  C     -245.826    -897.800     301.247
  O     -244.928    -898.230     300.522
  N     -246.698    -898.640     301.897
  C     -247.665    -898.130     302.604
  N     -248.494    -899.010     303.239
  C     -247.910    -896.690     302.756
  C     -247.050    -895.880     302.112
  O     -243.976    -888.950     302.108
  O     -245.618    -890.340     303.518
  H     -244.933    -895.300     297.385
  H     -244.808    -888.540     301.799
  H     -248.725    -896.330     303.353
  H     -247.143    -894.810     302.160
  H     -244.103    -896.120     300.602
  H     -246.409    -895.810     298.896
  H     -246.912    -893.630     299.750
  H     -243.865    -893.180     299.913
  H     -248.314    -900.000     303.109
  H     -245.572    -891.270     300.315
  H     -249.264    -898.720     303.829
  H     -246.008    -892.120     301.819
  P     -247.030    -892.890     297.205
  C     -248.264    -894.590     295.742
  O     -247.039    -894.240     296.345
  O     -246.550    -891.800     296.128
  O     -248.322    -892.510     297.848
  H     -247.291    -891.570     295.535
  H     -248.102    -895.430     295.069
  H     -248.666    -893.750     295.164
  H     -248.987    -894.890     296.517
  H     -242.121    -891.615     305.296
  H     -242.982    -892.517     304.072
  H     -243.868    -891.658     305.309

 3  4  5  6  7  8  9  10  11  12  13  21  23  27  28  29  30  32 0
 6-311+G(2d,p)
 ****
 34  35 0
 6-311+G(2d,p)
 ****
 1  2  14  15  16  17  18  19  20  22  24  25  26 0
 3-21G
 ****
 31  33  36  37  38  39  40  41  42  43  44  45  46 0
 3-21G
 ****


