%nproc=1
%NoSave
%Mem=1900MB
#P OB98/GEN NMR

erre ene a

0 1
  C     -106.844     400.626    -118.306
  O     -108.092     400.812    -117.669
  H     -106.546     399.579    -118.197
  H     -106.083     401.259    -117.836
  H     -106.918     400.863    -119.370
  P     -108.729     402.282    -117.748
  C     -107.586     402.937    -115.502
  O     -107.770     403.239    -116.884
  C     -107.403     404.233    -114.715
  O     -106.176     404.875    -115.122
  C     -108.503     405.267    -114.943
  O     -109.672     404.976    -114.197
  C     -107.804     406.549    -114.506
  O     -107.859     406.719    -113.083
  C     -106.351     406.299    -114.943
  N     -105.674     410.912    -117.010
  C     -105.929     410.518    -115.743
  N     -106.081     409.260    -115.269
  C     -105.925     408.361    -116.261
  C     -105.672     408.616    -117.599
  C     -105.538     409.961    -117.971
  N     -105.319     410.364    -119.263
  N     -105.628     407.434    -118.312
  C     -105.848     406.487    -117.425
  N     -106.027     407.001    -116.169
  O     -110.048     402.147    -116.843
  O     -109.042     402.768    -119.126
  H     -108.778     406.961    -112.868
  H     -110.815     401.950    -117.415
  H     -106.031     411.317    -115.010
  H     -105.889     405.421    -117.638
  H     -105.629     406.620    -114.184
  H     -108.262     407.429    -114.958
  H     -108.739     405.341    -116.016
  H     -107.321     403.985    -113.646
  H     -106.695     402.313    -115.382
  H     -108.462     402.385    -115.140
  H     -105.253     411.351    -119.465
  H     -105.324     409.673    -120.004
  P     -111.099     405.199    -114.882
  C     -111.173     407.687    -114.118
  O     -111.243     406.770    -115.198
  O     -112.135     404.955    -113.681
  O     -111.377     404.308    -116.046
  H     -112.511     404.057    -113.742
  H     -111.285     408.684    -114.489
  H     -110.225     407.592    -113.631
  H     -111.956     407.476    -113.420

 6  7  8  9  10  11  12  13  14  15  25  28  32  33  34  35 0
 6-311+G(2d,p)
 ****
 36  37  40 0
 6-311+G(2d,p)
 ****
 1  2  3  4  5  16  17  18  19  20  21  22  23  24 0
 3-21G
 ****
 26  27  29  30  31  38  39 41  42  43  44  45  46  47  48 0
 3-21G
 ****


