%nproc=1
%NoSave
%Mem=1900MB
#P OB98/GEN NMR

erre ene a

0 1
  C      -24.660     137.194    -732.280
  O      -25.383     136.422    -733.227
  P      -25.212     134.829    -733.289
  C      -23.338     135.022    -735.035
  O      -23.699     134.522    -733.756
  C      -22.039     134.390    -735.519
  O      -21.660     135.019    -736.781
  C      -20.839     134.550    -734.561
  O      -20.042     133.370    -734.699
  C      -20.091     135.737    -735.140
  O      -18.733     135.793    -734.725
  C      -20.291     135.484    -736.622
  N      -16.860     138.856    -738.370
  C      -16.741     137.811    -737.537
  N      -17.706     136.951    -737.105
  C      -18.902     137.311    -737.613
  C      -19.180     138.389    -738.448
  C      -18.082     139.179    -738.847
  N      -18.173     140.236    -739.710
  N      -20.538     138.446    -738.716
  C      -21.060     137.424    -738.055
  N      -20.098     136.685    -737.431
  O      -26.270     134.108    -734.063
  O      -25.224     134.382    -731.742
  H      -18.307     136.545    -735.171
  H      -26.080     133.961    -731.536
  H      -15.726     137.581    -737.171
  H      -22.113     137.192    -738.006
  H      -19.629     134.705    -737.011
  H      -20.574     136.669    -734.822
  H      -21.139     134.693    -733.515
  H      -22.225     133.334    -735.726
  H      -23.208     136.105    -734.940
  H      -17.303     140.649    -740.037
  H      -19.008     140.325    -740.297
  H      -24.143     134.826    -735.745
  P      -18.774     133.134    -733.738
  C      -17.064     133.686    -735.563
  O      -17.600     134.070    -734.303
  O      -18.395     131.716    -733.487
  O      -19.187     133.874    -732.378
  H      -18.620     133.575    -731.633
  H      -16.329     132.870    -735.410
  H      -16.545     134.543    -736.009
  H      -17.841     133.334    -736.242
  H      -24.910     138.228    -732.398
  H      -23.610     137.060    -732.438
  H      -24.915     136.876    -731.291

 3  4  5  6  7  8  9  10  11  12  22  25  29  30  31  32 0
 6-311+G(2d,p)
 ****
 33  36  37 0
 6-311+G(2d,p)
 ****
 1  2  13  14  15  16  17  18  19  20  21  23  24  26 0
 3-21G
 ****
 27  28  34  35  38  39  40  41  42  43  44  45  46  47  48 0
 3-21G
 ****


