%nproc=1
%NoSave
%Mem=1900MB
#P OB98/GEN NMR

erre ene a

0 1
  C       28.124     -39.119     -14.972
  O       28.486     -37.895     -15.590
  P       28.223     -37.747     -17.167
  C       29.588     -38.543     -19.271
  O       29.566     -38.251     -17.882
  C       30.829     -37.921     -19.920
  O       30.740     -36.481     -19.867
  C       32.145     -38.273     -19.240
  O       32.576     -39.584     -19.568
  C       33.050     -37.159     -19.753
  O       33.510     -37.462     -21.081
  C       32.084     -35.957     -19.787
  N       32.235     -35.062     -18.639
  C       32.768     -33.805     -18.907
  O       33.100     -33.439     -20.034
  N       32.926     -32.982     -17.822
  C       32.670     -33.307     -16.521
  O       32.870     -32.547     -15.584
  C       32.139     -34.662     -16.298
  C       31.950     -35.463     -17.350
  O       28.250     -36.155     -17.320
  O       26.963     -38.406     -17.615
  H       28.799     -35.735     -16.635
  H       32.723     -37.741     -21.589
  H       33.288     -32.055     -17.994
  H       31.934     -34.960     -15.278
  H       31.569     -36.467     -17.203
  H       32.238     -35.371     -20.703
  H       33.935     -37.009     -19.124
  H       32.038     -38.184     -18.151
  H       30.849     -38.223     -20.975
  H       28.688     -38.136     -19.735
  H       29.591     -39.631     -19.405
  P       33.197     -40.459     -18.366
  C       35.521     -40.434     -17.173
  O       34.755     -40.095     -18.306
  O       33.156     -41.929     -19.001
  O       32.454     -40.319     -17.077
  H       33.431     -41.947     -19.932
  H       36.579     -40.440     -17.452
  H       35.253     -41.423     -16.789
  H       35.367     -39.686     -16.391
  H       28.355     -39.074     -13.928
  H       28.669     -39.921     -15.424
  H       27.075     -39.285     -15.098

 3  4  5  6  7  8  9  10  11  12  13  24  28  29  30  31  32 0
 6-311+G(2d,p)
 ****
 33  34 0
 6-311+G(2d,p)
 ****
 1  2  14  15  16  17  18  19  20  21  22  23  25  26  27 0
 3-21G
 ****
 35  36  37  38  39  40  41  42  43  44  45 0
 3-21G
 ****


