%nproc=1
%NoSave
%Mem=1900MB
#P OB98/GEN NMR

erre ene a

0 1
  C      -48.173      71.246     558.055
  O      -47.091      72.100     557.717
  P      -47.269      73.694     557.699
  C      -45.537      75.555     557.307
  O      -45.786      74.278     557.884
  C      -44.193      76.096     557.787
  O      -44.356      76.580     559.142
  C      -43.053      75.082     557.853
  O      -42.370      74.878     556.625
  C      -42.117      75.774     558.840
  O      -41.382      76.812     558.163
  C      -43.097      76.388     559.842
  N      -41.704      75.477     564.680
  C      -41.328      76.426     563.793
  N      -41.731      76.590     562.518
  C      -42.649      75.669     562.189
  C      -43.140      74.642     562.985
  C      -42.626      74.564     564.294
  N      -43.030      73.609     565.204
  N      -44.064      73.887     562.293
  C      -44.141      74.451     561.109
  N      -43.313      75.538     560.998
  O      -48.293      74.214     558.647
  O      -47.604      74.037     556.173
  H      -42.041      77.437     557.802
  H      -47.986      74.934     556.110
  H      -40.602      77.147     564.156
  H      -44.772      74.114     560.300
  H      -42.774      77.370     560.200
  H      -41.378      75.095     559.274
  H      -43.389      74.130     558.285
  H      -43.918      76.950     557.157
  H      -46.336      76.238     557.624
  H      -42.706      73.710     566.151
  H      -43.830      73.038     564.969
  H      -45.567      75.479     556.216
  P      -41.822      73.394     556.329
  C      -41.401      72.041     554.124
  O      -41.790      73.257     554.731
  O      -42.544      72.312     557.051
  O      -40.273      73.505     556.715
  H      -39.740      74.081     556.137
  H      -41.604      72.106     553.053
  H      -41.967      71.202     554.534
  H      -40.330      71.877     554.271
  H      -47.851      70.227     558.008
  H      -48.976      71.398     557.365
  H      -48.507      71.469     559.047

 3  4  5  6  7  8  9  10  11  12  22  25  29  30  31  32 0
 6-311+G(2d,p)
 ****
 33  36  37 0
 6-311+G(2d,p)
 ****
 1  2  13  14  15  16  17  18  19  20  21  23  24  26 0
 3-21G
 ****
 27  28  34  35  38  39  40  41  42  43  44  45  46  47  48 0
 3-21G
 ****


