%nproc=1
%NoSave
%Mem=1900MB
#P OB98/GEN NMR

erre ene a

0 1
  C      291.227    1053.266      86.758
  O      292.175    1053.168      85.717
  H      291.754    1053.181      87.712
  H      290.501    1052.454      86.680
  H      290.707    1054.235      86.726
  P      291.691    1053.428      84.202
  C      293.241    1051.473      83.560
  O      292.808    1052.792      83.243
  C      294.247    1050.990      82.510
  O      293.676    1051.094      81.188
  C      295.527    1051.838      82.460
  O      296.389    1051.551      83.535
  C      296.060    1051.448      81.090
  O      296.782    1050.207      81.141
  C      294.768    1051.309      80.255
  N      294.520    1052.467      79.416
  C      294.938    1052.375      78.098
  O      295.508    1051.377      77.618
  N      294.779    1053.499      77.320
  C      294.371    1054.720      77.779
  O      294.471    1055.752      77.131
  C      293.874    1054.743      79.169
  C      293.983    1053.645      79.901
  O      291.310    1054.838      83.884
  O      290.452    1052.426      84.026
  H      289.619    1052.930      84.102
  H      297.491    1050.334      81.806
  H      295.140    1053.447      76.376
  H      293.468    1055.675      79.547
  H      293.639    1053.641      80.946
  H      294.814    1050.403      79.630
  H      296.756    1052.210      80.692
  H      295.274    1052.906      82.451
  H      294.488    1049.936      82.704
  H      292.376    1050.802      83.561
  H      293.697    1051.480      84.555
  P      296.636    1052.632      84.686
  C      299.138    1052.761      85.310
  O      297.884    1052.144      85.581
  O      295.424    1053.033      85.468
  O      297.240    1053.897      83.900
  H      296.768    1054.697      84.168
  H      299.883    1052.357      85.963
  H      299.058    1053.816      85.469
  H      299.415    1052.574      84.294

 6  7  8  9  10  11  12  13  14  15  16  27  31  32  33  34  35 0
 6-311+G(2d,p)
 ****
 36  37 0
 6-311+G(2d,p)
 ****
 1  2  3  4  5  17  18  19  20  21  22  23  24  25 0
 3-21G
 ****
 26  28  29  30  38  39  40  41  42  43  44  45 0
 3-21G
 ****


