%nproc=1
%NoSave
%Mem=1900MB
#P OB98/GEN NMR

erre ene a

0 1
  C       29.363      73.920     370.794
  O       28.102      74.026     371.426
  H       30.121      74.357     371.451
  H       29.369      74.460     369.843
  H       29.613      72.869     370.625
  P       26.793      73.687     370.558
  C       26.509      71.186     371.137
  O       26.929      72.136     370.159
  C       25.586      70.133     370.514
  O       24.435      70.769     369.922
  C       26.230      69.344     369.384
  O       27.255      68.467     369.803
  C       25.023      68.794     368.641
  O       24.536      67.567     369.180
  C       23.975      69.913     368.857
  N       23.713      70.659     367.632
  C       23.091      69.950     366.610
  O       22.791      68.758     366.696
  N       22.861      70.648     365.455
  C       23.230      71.940     365.216
  O       23.032      72.494     364.141
  C       23.908      72.629     366.326
  C       24.114      71.970     367.465
  O       26.534      74.593     369.392
  O       25.614      73.679     371.638
  H       23.599      67.491     368.920
  H       24.730      73.748     371.202
  H       22.403      70.152     364.708
  H       24.217      73.655     366.168
  H       24.615      72.459     368.300
  H       23.025      69.481     369.195
  H       25.252      68.610     367.589
  H       26.710      70.059     368.703
  H       25.235      69.469     371.313
  H       25.961      71.727     371.916
  H       27.382      70.709     371.590
  P       28.432      67.972     368.843
  C       29.761      70.139     369.389
  O       29.274      69.262     368.376
  O       28.079      66.939     367.820
  O       29.433      67.279     369.903
  H       29.855      66.520     369.453
  H       30.298      70.945     368.935
  H       30.414      69.600     370.044
  H       28.937      70.530     369.949

 6  7  8  9  10  11  12  13  14  15  16  26  31  32  33  34  35 0
 6-311+G(2d,p)
 ****
 36  37 0
 6-311+G(2d,p)
 ****
 1  2  3  4  5  17  18  19  20  21  22  23  24  25 0
 3-21G
 ****
 27  28  29  30  38  39  40  41  42  43  44  45 0
 3-21G
 ****


