%nproc=1
%NoSave
%Mem=1900MB
#P OB98/GEN NMR

erre ene a

0 1
  C     -182.007    -151.004    -768.357
  O     -182.429    -152.308    -768.702
  H     -180.993    -150.858    -768.750
  H     -181.973    -150.880    -767.276
  H     -182.670    -150.258    -768.806
  P     -183.807    -152.867    -768.082
  C     -184.680    -153.247    -765.701
  O     -183.536    -152.964    -766.488
  C     -184.581    -152.602    -764.310
  O     -183.499    -153.227    -763.565
  C     -184.304    -151.090    -764.346
  O     -185.188    -150.429    -763.438
  C     -182.857    -150.976    -763.873
  O     -182.578    -149.693    -763.312
  C     -182.766    -152.166    -762.905
  N     -181.395    -152.557    -762.609
  C     -180.733    -151.815    -761.623
  O     -181.291    -150.859    -761.083
  N     -179.441    -152.155    -761.301
  C     -178.833    -153.101    -761.946
  N     -177.551    -153.373    -761.593
  C     -179.485    -153.888    -763.033
  C     -180.759    -153.565    -763.296
  O     -184.309    -154.117    -768.710
  O     -184.827    -151.635    -768.194
  H     -183.087    -149.616    -762.462
  H     -185.753    -151.973    -768.143
  H     -178.938    -154.662    -763.539
  H     -181.309    -154.088    -764.068
  H     -183.283    -151.941    -761.955
  H     -182.181    -151.135    -764.723
  H     -184.432    -150.656    -765.339
  H     -185.495    -152.827    -763.751
  H     -177.143    -152.812    -760.841
  H     -184.786    -154.339    -765.609
  H     -176.985    -154.092    -762.025
  H     -185.566    -152.843    -766.215
  P     -186.424    -149.636    -764.094
  C     -186.835    -147.288    -765.131
  O     -185.880    -148.207    -764.604
  O     -187.341    -149.273    -762.836
  O     -187.167    -150.439    -765.121
  H     -188.087    -149.895    -762.773
  H     -186.338    -146.388    -765.428
  H     -187.564    -147.062    -764.381
  H     -187.320    -147.725    -765.979

 6  7  8  9  10  11  12  13  14  15  16  26  30  31  32  33  35 0
 6-311+G(2d,p)
 ****
 37  38 0
 6-311+G(2d,p)
 ****
 1  2  3  4  5  17  18  19  20  21  22  23  24  25 0
 3-21G
 ****
 27  28  29  34  36  39  40  41  42  43  44  45  46 0
 3-21G
 ****


