%nproc=1
%NoSave
%Mem=1900MB
#P OB98/GEN NMR

erre ene a

0 1
  C     -122.913    -123.855    -110.546
  O     -121.483    -123.865    -110.589
  P     -120.782    -123.719    -112.024
  C     -118.377    -122.929    -111.450
  O     -119.210    -124.002    -111.861
  C     -118.426    -122.733    -109.928
  O     -118.228    -123.997    -109.237
  C     -117.358    -121.769    -109.402
  O     -117.875    -121.120    -108.235
  C     -116.244    -122.708    -108.982
  O     -115.335    -122.080    -108.079
  C     -117.062    -123.860    -108.399
  N     -113.256    -126.269    -106.131
  C     -113.727    -124.983    -105.954
  N     -113.115    -124.242    -105.007
  N     -114.714    -124.470    -106.644
  C     -115.252    -125.342    -107.531
  C     -114.870    -126.635    -107.803
  C     -113.763    -127.181    -107.051
  O     -113.294    -128.308    -107.175
  N     -115.647    -127.188    -108.789
  C     -116.491    -126.228    -109.115
  N     -116.315    -125.102    -108.356
  O     -120.849    -122.142    -112.296
  O     -121.464    -124.484    -113.109
  H     -114.801    -122.790    -107.661
  H     -121.506    -121.955    -112.990
  H     -112.487    -126.610    -105.580
  H     -117.242    -126.293    -109.889
  H     -117.398    -123.655    -107.375
  H     -115.679    -123.035    -109.865
  H     -112.385    -124.593    -104.406
  H     -117.026    -121.013    -110.120
  H     -113.468    -123.310    -104.828
  H     -119.422    -122.365    -109.656
  H     -118.684    -122.004    -111.945
  H     -117.356    -123.122    -111.795
  P     -118.260    -119.571    -108.376
  C     -120.552    -119.781    -107.174
  O     -119.243    -119.243    -107.156
  O     -119.224    -119.538    -109.653
  O     -117.095    -118.650    -108.529
  H     -119.207    -118.658    -110.068
  H     -120.600    -120.625    -106.482
  H     -120.845    -120.113    -108.174
  H     -121.252    -119.010    -106.842
  H     -123.240    -123.960    -109.533
  H     -123.293    -124.668    -111.129
  H     -123.275    -122.930    -110.944

 3  4  5  6  7  8  9  10  11  12  23  26  30  31 0
 6-311+G(2d,p)
 ****
 33  35  36  37  38 0
 6-311+G(2d,p)
 ****
 1  2  13  14  15  16  17  18  19  20  21  22  24  25 0
 3-21G
 ****
 27  28  29  32  34  39  40  41  42  43  44  45  46  47  48  49 0
 3-21G
 ****


