%nproc=1
%NoSave
%Mem=1900MB
#P OB98/GEN NMR

erre ene a

0 1
  C     -156.634    -355.647    -257.812
  O     -155.780    -354.525    -257.716
  H     -157.375    -355.457    -258.593
  H     -157.153    -355.800    -256.863
  H     -156.063    -356.541    -258.075
  P     -154.555    -354.633    -256.684
  C     -154.075    -352.158    -256.077
  O     -153.697    -353.284    -256.855
  C     -153.290    -350.918    -256.503
  O     -153.515    -350.683    -257.927
  C     -153.686    -349.634    -255.760
  O     -152.505    -348.839    -255.589
  C     -154.591    -348.928    -256.756
  O     -154.690    -347.528    -256.515
  C     -153.895    -349.302    -258.064
  N     -154.417    -346.613    -262.286
  C     -153.402    -346.625    -261.348
  N     -152.361    -345.789    -261.569
  N     -153.404    -347.387    -260.289
  C     -154.488    -348.195    -260.213
  C     -155.563    -348.277    -261.067
  C     -155.559    -347.406    -262.227
  O     -156.439    -347.338    -263.080
  N     -156.477    -349.202    -260.627
  C     -155.954    -349.677    -259.511
  N     -154.750    -349.096    -259.215
  O     -153.631    -355.756    -257.354
  O     -154.929    -354.978    -255.281
  H     -155.092    -347.402    -255.630
  H     -153.846    -356.633    -256.984
  H     -154.372    -345.998    -263.079
  H     -156.406    -350.432    -258.879
  H     -152.987    -348.710    -258.233
  H     -155.601    -349.356    -256.716
  H     -152.270    -345.210    -262.385
  H     -154.162    -349.802    -254.788
  H     -151.587    -345.814    -260.917
  H     -152.221    -351.126    -256.385
  H     -153.867    -352.367    -255.022
  H     -155.152    -351.979    -256.200
  P     -152.173    -348.284    -254.126
  C     -152.013    -345.730    -254.596
  O     -151.326    -346.933    -254.284
  O     -151.079    -349.324    -253.591
  O     -153.355    -348.206    -253.214
  H     -151.118    -349.375    -252.617
  H     -151.310    -344.926    -254.666
  H     -152.724    -345.516    -253.826
  H     -152.522    -345.842    -255.531

 6  7  8  9  10  11  12  13  14  15  26  29  33  34 0
 6-311+G(2d,p)
 ****
 36  38  39  40  41 0
 6-311+G(2d,p)
 ****
 1  2  3  4  5  16  17  18  19  20  21  22  23  24  25 0
 3-21G
 ****
 27  28  30  31  32  35  37  42  43  44  45  46  47 0
 3-21G
 ****
 48  49 0
 3-21G
 ****


