%nproc=1
%NoSave
%Mem=1900MB
#P OB98/GEN NMR

erre ene a

0 1
  C     -323.659     512.764     368.657
  O     -324.159     511.937     369.688
  H     -323.454     513.754     369.068
  H     -324.401     512.864     367.858
  H     -322.728     512.356     368.248
  P     -324.419     510.385     369.382
  C     -326.614     509.090     368.989
  O     -325.878     510.279     368.721
  C     -328.062     509.442     369.323
  O     -328.126     510.187     370.559
  C     -328.749     510.320     368.274
  O     -329.102     509.556     367.138
  C     -329.919     510.861     369.085
  O     -330.973     509.887     369.179
  C     -329.259     511.084     370.468
  N     -328.851     512.477     370.684
  C     -329.862     513.349     371.089
  O     -331.031     513.005     371.248
  N     -329.479     514.659     371.254
  C     -328.244     515.168     370.970
  O     -328.010     516.373     370.921
  C     -327.210     514.188     370.626
  C     -327.554     512.906     370.493
  O     -324.170     509.449     370.517
  O     -323.448     510.079     368.143
  H     -322.648     509.627     368.468
  H     -331.775     510.374     369.444
  H     -330.211     515.311     371.493
  H     -326.200     514.547     370.460
  H     -326.813     512.169     370.205
  H     -329.952     510.799     371.273
  H     -330.349     511.761     368.646
  H     -328.091     511.155     367.999
  H     -328.622     508.505     369.465
  H     -326.163     508.579     369.840
  H     -326.565     508.441     368.108
  P     -329.996     510.188     365.968
  C     -332.452     510.816     365.576
  O     -331.502     510.346     366.513
  O     -329.892     509.495     364.646
  O     -329.493     511.710     365.856
  H     -329.242     511.893     364.926
  H     -333.412     510.882     366.044
  H     -332.504     510.138     364.750
  H     -332.159     511.784     365.226

 6  7  8  9  10  11  12  13  14  15  16  27  31  32  33  34  35 0
 6-311+G(2d,p)
 ****
 36  37 0
 6-311+G(2d,p)
 ****
 1  2  3  4  5  17  18  19  20  21  22  23  24  25 0
 3-21G
 ****
 26  28  29  30  38  39  40  41  42  43  44  45 0
 3-21G
 ****


