%nproc=1
%NoSave
%Mem=1900MB
#P OB98/GEN NMR

erre ene a

0 1
  C      562.759    -343.270    -724.060
  O      562.075    -343.462    -725.309
  P      561.524    -342.165    -726.070
  C      561.784    -343.081    -728.487
  O      560.905    -342.634    -727.470
  C      561.078    -344.085    -729.408
  O      560.703    -345.289    -728.707
  C      559.784    -343.541    -730.014
  O      560.032    -342.746    -731.157
  C      559.088    -344.828    -730.415
  O      559.632    -345.309    -731.665
  C      559.456    -345.778    -729.270
  N      555.285    -348.191    -727.722
  C      556.076    -348.405    -728.839
  N      555.707    -349.412    -729.659
  N      557.147    -347.689    -729.124
  C      557.398    -346.730    -728.203
  C      556.690    -346.416    -727.063
  C      555.514    -347.208    -726.768
  O      554.769    -347.055    -725.806
  N      557.266    -345.379    -726.388
  C      558.324    -345.056    -727.111
  N      558.442    -345.841    -728.230
  O      562.867    -341.409    -726.510
  O      560.644    -341.287    -725.239
  H      559.168    -346.145    -731.867
  H      562.700    -340.450    -726.578
  H      554.478    -348.771    -727.556
  H      559.030    -344.281    -726.859
  H      559.629    -346.806    -729.615
  H      558.004    -344.696    -730.573
  H      554.927    -350.033    -729.473
  H      559.183    -343.004    -729.256
  H      556.291    -349.599    -730.459
  H      561.766    -344.352    -730.221
  H      562.670    -343.558    -728.046
  H      562.158    -342.221    -729.049
  P      560.023    -341.144    -730.981
  C      561.628    -340.985    -733.016
  O      560.433    -340.542    -732.408
  O      561.305    -340.889    -730.061
  O      558.776    -340.598    -730.371
  H      561.147    -340.100    -729.493
  H      561.662    -340.597    -734.040
  H      561.663    -342.082    -733.061
  H      562.498    -340.615    -732.462
  H      563.067    -344.219    -723.672
  H      562.101    -342.796    -723.362
  H      563.619    -342.652    -724.215

 3  4  5  6  7  8  9  10  11  12  23  26  30  31 0
 6-311+G(2d,p)
 ****
 33  35  36  37  38 0
 6-311+G(2d,p)
 ****
 1  2  13  14  15  16  17  18  19  20  21  22  24  25 0
 3-21G
 ****
 27  28  29  32  34  39  40  41  42  43  44  45  46  47  48  49 0
 3-21G
 ****


