%nproc=1
%NoSave
%Mem=1900MB
#P OB98/GEN NMR

erre ene a

0 1
  C     -170.635     -33.392      24.796
  O     -171.745     -32.519      24.714
  H     -170.881     -34.320      24.277
  H     -170.416     -33.619      25.841
  H     -169.759     -32.939      24.319
  P     -171.527     -31.020      25.256
  C     -172.737     -29.810      23.267
  O     -172.732     -30.164      24.639
  C     -173.427     -30.892      22.437
  O     -174.763     -31.095      22.959
  C     -173.552     -30.547      20.953
  O     -173.371     -31.740      20.190
  C     -174.983     -30.060      20.821
  O     -175.471     -30.197      19.487
  C     -175.699     -30.913      21.876
  N     -176.938     -30.295      22.343
  C     -177.997     -30.239      21.430
  O     -177.853     -30.675      20.287
  N     -179.175     -29.650      21.816
  C     -179.267     -29.102      22.986
  N     -180.453     -28.516      23.304
  C     -178.159     -29.092      23.964
  C     -177.040     -29.710      23.585
  O     -170.251     -30.554      24.408
  O     -171.357     -30.925      26.735
  H     -176.396     -29.866      19.468
  H     -170.279     -30.832      23.477
  H     -178.282     -28.607      24.923
  H     -176.180     -29.755      24.243
  H     -175.939     -31.906      21.469
  H     -175.041     -28.996      21.090
  H     -172.840     -29.791      20.621
  H     -172.884     -31.834      22.581
  H     -181.183     -28.528      22.600
  H     -171.713     -29.671      22.908
  H     -180.618     -28.016      24.162
  H     -173.267     -28.857      23.165
  P     -171.888     -32.273      19.908
  C     -171.866     -34.822      20.317
  O     -171.971     -33.779      19.354
  O     -170.896     -32.056      21.002
  O     -171.460     -31.453      18.591
  H     -170.517     -31.215      18.682
  H     -171.935     -35.770      19.825
  H     -172.659     -34.731      21.029
  H     -170.924     -34.749      20.820

 6  7  8  9  10  11  12  13  14  15  16  26  30  31  32  33  35 0
 6-311+G(2d,p)
 ****
 37  38 0
 6-311+G(2d,p)
 ****
 1  2  3  4  5  17  18  19  20  21  22  23  24  25 0
 3-21G
 ****
 27  28  29  34  36  39  40  41  42  43  44  45  46 0
 3-21G
 ****


