%nproc=1
%NoSave
%Mem=1900MB
#P OB98/GEN NMR

erre ene a

0 1
  C     -741.166     546.227     669.673
  O     -742.374     545.753     670.229
  H     -741.241     547.298     669.508
  H     -740.958     545.738     668.716
  H     -740.328     546.039     670.365
  P     -742.495     544.166     670.444
  C     -743.139     544.554     672.939
  O     -742.221     543.988     672.025
  C     -743.745     543.444     673.815
  O     -742.710     542.781     674.571
  C     -744.776     543.944     674.852
  O     -746.027     544.227     674.311
  C     -744.806     542.735     675.777
  O     -745.567     541.682     675.149
  C     -743.311     542.376     675.852
  N     -742.608     543.036     676.975
  C     -743.099     542.769     678.260
  O     -744.084     542.025     678.412
  N     -742.510     543.394     679.324
  C     -741.506     544.186     679.159
  N     -740.961     544.753     680.267
  C     -740.934     544.482     677.819
  C     -741.531     543.872     676.794
  O     -741.154     543.601     669.788
  O     -743.753     543.532     669.943
  H     -746.491     541.913     675.245
  H     -741.050     542.640     669.990
  H     -740.100     545.151     677.706
  H     -741.164     544.038     675.786
  H     -743.156     541.272     675.953
  H     -745.282     542.939     676.738
  H     -744.375     544.807     675.425
  H     -744.202     542.703     673.155
  H     -741.399     544.584     681.160
  H     -743.934     545.067     672.379
  H     -740.260     545.501     680.185
  H     -742.641     545.275     673.594
  P     -746.929     545.364     675.039
  C     -747.401     546.681     672.818
  O     -746.806     546.693     674.131
  O     -746.036     545.728     676.330
  O     -748.308     544.948     675.389
  H     -746.605     545.956     677.094
  H     -747.237     547.626     672.343
  H     -748.453     546.503     672.905
  H     -746.955     545.905     672.232

 6  7  8  9  10  11  12  13  14  15  16  26  30  31  32  33  35 0
 6-311+G(2d,p)
 ****
 37  38 0
 6-311+G(2d,p)
 ****
 1  2  3  4  5  17  18  19  20  21  22  23  24  25 0
 3-21G
 ****
 27  28  29  34  36  39  40  41  42  43  44  45  46 0
 3-21G
 ****


