%nproc=1
%NoSave
%Mem=1900MB
#P OB98/GEN NMR

erre ene a

0 1
  C     -730.380     145.307     416.812
  O     -730.788     145.184     418.159
  H     -729.859     146.262     416.690
  H     -731.251     145.310     416.149
  H     -729.697     144.501     416.532
  P     -731.444     143.805     418.636
  C     -729.235     142.936     419.649
  O     -730.267     142.717     418.693
  C     -728.014     142.082     419.299
  O     -727.462     142.496     418.026
  C     -726.872     142.194     420.301
  O     -727.140     141.460     421.476
  C     -725.709     141.671     419.480
  O     -725.695     140.238     419.458
  C     -726.031     142.242     418.078
  N     -725.273     143.452     417.767
  C     -724.106     143.280     417.021
  O     -723.699     142.178     416.669
  N     -723.413     144.424     416.732
  C     -723.698     145.679     417.197
  O     -722.991     146.659     416.983
  C     -724.924     145.802     417.990
  C     -725.645     144.707     418.241
  O     -732.664     143.374     417.891
  O     -731.770     144.058     420.194
  H     -725.043     139.972     418.781
  H     -732.729     144.202     420.295
  H     -722.554     144.318     416.210
  H     -725.198     146.781     418.367
  H     -726.563     144.768     418.834
  H     -725.824     141.499     417.300
  H     -724.750     142.002     419.866
  H     -726.691     143.248     420.547
  H     -728.342     141.036     419.204
  H     -729.605     142.653     420.636
  H     -728.972     144.002     419.651
  P     -727.958     142.127     422.677
  C     -729.911     140.458     422.711
  O     -729.519     141.805     422.460
  O     -727.644     143.571     422.938
  O     -727.580     141.232     423.950
  H     -727.143     141.784     424.623
  H     -730.962     140.354     422.538
  H     -729.690     140.206     423.727
  H     -729.375     139.803     422.057

 6  7  8  9  10  11  12  13  14  15  16  26  31  32  33  34  35 0
 6-311+G(2d,p)
 ****
 36  37 0
 6-311+G(2d,p)
 ****
 1  2  3  4  5  17  18  19  20  21  22  23  24  25 0
 3-21G
 ****
 27  28  29  30  38  39  40  41  42  43  44  45 0
 3-21G
 ****


