%nproc=1
%NoSave
%Mem=1900MB
#P OB98/GEN NMR

erre ene a

0 1
  C     -386.910     370.944     159.942
  O     -385.795     371.182     159.115
  P     -385.671     372.460     158.164
  C     -386.204     371.064     156.033
  O     -386.539     372.193     156.837
  C     -386.620     371.230     154.561
  O     -388.010     371.593     154.496
  C     -385.841     372.383     153.923
  O     -384.541     372.160     153.412
  C     -386.818     373.022     152.937
  O     -386.617     372.579     151.597
  C     -388.186     372.578     153.461
  N     -390.576     376.915     152.382
  C     -390.091     375.957     151.519
  N     -390.080     376.293     150.212
  N     -389.632     374.789     151.914
  C     -389.632     374.642     153.257
  C     -390.094     375.515     154.214
  C     -390.628     376.782     153.769
  O     -390.991     377.696     154.503
  N     -389.857     375.061     155.482
  C     -389.207     373.931     155.304
  N     -389.012     373.655     153.973
  O     -384.308     373.063     158.012
  O     -386.585     373.535     158.954
  H     -387.344     372.935     151.049
  H     -386.183     374.414     158.816
  H     -390.832     377.834     152.031
  H     -388.830     373.289     156.096
  H     -388.755     372.084     152.660
  H     -386.692     374.110     152.928
  H     -390.274     377.227     149.892
  H     -385.689     373.138     154.704
  H     -389.573     375.684     149.570
  H     -386.539     370.288     154.022
  H     -386.689     370.191     156.481
  H     -385.126     370.894     156.082
  P     -383.422     373.272     153.148
  C     -384.264     374.846     151.307
  O     -384.151     374.633     152.703
  O     -382.704     372.804     151.793
  O     -382.418     373.425     154.244
  H     -381.805     373.193     151.743
  H     -384.485     375.901     151.128
  H     -385.091     374.238     150.916
  H     -383.340     374.578     150.800
  H     -386.765     370.032     160.482
  H     -387.791     370.866     159.339
  H     -387.021     371.754     160.633

 3  4  5  6  7  8  9  10  11  12  23  26  30  31 0
 6-311+G(2d,p)
 ****
 33  35  36  37  38 0
 6-311+G(2d,p)
 ****
 1  2  13  14  15  16  17  18  19  20  21  22  24  25 0
 3-21G
 ****
 27  28  29  32  34  39  40  41  42  43  44  45  46  47  48  49 0
 3-21G
 ****


