%nproc=1
%NoSave
%Mem=1900MB
#P OB98/GEN NMR

erre ene a

0 1
  C     -888.958    -598.403    -898.810
  O     -889.904    -599.140    -899.580
  H     -888.178    -599.064    -898.440
  H     -888.495    -597.639    -899.440
  H     -889.461    -597.906    -897.960
  P     -890.688    -600.307    -898.840
  C     -889.793    -602.246    -897.360
  O     -889.605    -601.442    -898.500
  C     -889.641    -603.722    -897.730
  O     -888.236    -604.065    -897.900
  C     -890.173    -604.696    -896.680
  O     -891.581    -604.856    -896.760
  C     -889.438    -605.981    -897.080
  O     -890.083    -606.543    -898.250
  C     -888.066    -605.430    -897.460
  N     -884.837    -608.355    -894.760
  C     -885.663    -608.639    -895.790
  N     -886.485    -607.814    -896.470
  C     -886.434    -606.570    -895.930
  C     -885.606    -606.121    -894.880
  C     -884.792    -607.091    -894.290
  N     -883.965    -606.811    -893.230
  N     -885.848    -604.781    -894.630
  C     -886.732    -604.420    -895.550
  N     -887.120    -605.449    -896.370
  O     -891.561    -600.972    -900.000
  O     -891.531    -599.888    -897.670
  H     -891.003    -606.743    -897.980
  H     -892.308    -601.475    -899.620
  H     -885.647    -609.674    -896.140
  H     -887.110    -603.404    -895.640
  H     -887.604    -605.995    -898.300
  H     -889.432    -606.719    -896.320
  H     -889.842    -604.402    -895.650
  H     -890.157    -603.891    -898.700
  H     -890.797    -602.094    -896.960
  H     -883.574    -607.616    -892.750
  H     -884.037    -605.889    -892.780
  H     -889.049    -601.974    -896.580
  P     -892.319    -605.380    -895.440
  C     -892.505    -607.693    -894.210
  O     -891.950    -606.945    -895.320
  O     -893.872    -605.399    -895.870
  O     -892.089    -604.556    -894.200
  H     -894.475    -605.284    -895.110
  H     -892.174    -608.709    -894.264
  H     -893.573    -607.663    -894.258
  H     -892.177    -607.259    -893.288

 6  7  8  9  10  11  12  13  14  15  25  28  32  33  34  35 0
 6-311+G(2d,p)
 ****
 36  39  40 0
 6-311+G(2d,p)
 ****
 1  2  3  4  5  16  17  18  19  20  21  22  23  24 0
 3-21G
 ****
 26  27  29  30  31  37  38  41  42  43  44  45  46  47 0
 3-21G
 ****
 48 0
 3-21G
 ****


