%nproc=1
%NoSave
%Mem=1900MB
#P OB98/GEN NMR

erre ene a

0 1
  C      314.890    -373.721     105.843
  O      314.753    -374.391     104.584
  P      314.930    -373.508     103.257
  C      317.475    -373.993     102.864
  O      316.469    -373.063     103.237
  C      317.807    -373.846     101.381
  O      318.394    -372.549     101.117
  C      318.821    -374.854     100.860
  O      318.228    -376.139     100.703
  C      319.258    -374.185      99.565
  O      318.295    -374.431      98.529
  C      319.241    -372.693      99.957
  N      320.572    -372.151     100.197
  C      321.263    -371.711      99.054
  O      320.805    -371.800      97.924
  N      322.514    -371.207      99.282
  C      323.140    -371.111     100.495
  O      324.259    -370.626     100.637
  C      322.385    -371.630     101.642
  C      321.156    -372.115     101.446
  O      314.134    -372.179     103.662
  O      314.434    -374.195     102.031
  H      314.229    -371.958     104.600
  H      317.436    -374.086      98.854
  H      323.025    -370.874      98.477
  H      322.855    -371.595     102.615
  H      320.585    -372.512     102.279
  H      318.772    -372.101      99.161
  H      320.217    -374.559      99.208
  H      319.668    -374.921     101.554
  H      316.871    -373.919     100.816
  H      317.122    -375.015     103.051
  H      318.354    -373.835     103.492
  P      319.104    -377.398     101.178
  C      318.461    -377.321     103.723
  O      319.449    -377.152     102.728
  O      320.491    -377.121     100.433
  O      318.482    -378.722     100.869
  H      320.773    -376.199     100.484
  H      318.954    -377.452     104.680
  H      317.840    -378.196     103.515
  H      317.832    -376.424     103.761
  H      314.749    -374.423     106.638
  H      314.155    -372.947     105.917
  H      315.868    -373.293     105.915

 3  4  5  6  7  8  9  10  11  12  13  24  28  29  30  31  32 0
 6-311+G(2d,p)
 ****
 33  34 0
 6-311+G(2d,p)
 ****
 1  2  14  15  16  17  18  19  20  21  22  23  25  26  27 0
 3-21G
 ****
 35  36  37  38  39  40  41  42  43  44  45 0
 3-21G
 ****


