%nproc=1
%NoSave
%Mem=1900MB
#P OB98/GEN NMR

erre ene a

0 1
  C     -890.173    -604.696    -899.061
  O     -891.581    -604.856    -899.141
  P     -892.319    -605.380    -897.821
  C     -892.505    -607.693    -896.591
  O     -891.950    -606.945    -897.701
  C     -892.306    -609.176    -896.811
  O     -890.932    -609.542    -896.751
  C     -892.979    -610.048    -895.751
  O     -894.406    -610.135    -895.971
  C     -892.270    -611.351    -895.931
  O     -892.900    -612.155    -896.981
  C     -890.847    -610.911    -896.361
  N     -889.852    -611.122    -895.311
  C     -888.900    -612.094    -895.591
  O     -888.953    -612.758    -896.651
  N     -887.924    -612.360    -894.641
  C     -887.919    -611.685    -893.521
  N     -886.939    -611.988    -892.611
  C     -888.949    -610.679    -893.191
  C     -889.872    -610.421    -894.121
  O     -893.872    -605.399    -898.251
  O     -892.089    -604.556    -896.581
  H     -893.848    -612.202    -896.721
  H     -894.475    -605.284    -897.491
  H     -888.894    -610.155    -892.231
  H     -890.662    -609.700    -893.981
  H     -890.538    -611.454    -897.251
  H     -892.267    -611.965    -895.001
  H     -892.801    -609.641    -894.731
  H     -892.698    -609.448    -897.811
  H     -886.294    -612.711    -892.881
  H     -893.563    -607.456    -896.491
  H     -886.860    -611.520    -891.721
  H     -891.983    -607.351    -895.661
  P     -895.322    -610.500    -894.731
  C     -895.819    -612.642    -893.391
  O     -895.000    -612.035    -894.441
  O     -896.779    -610.549    -895.431
  O     -895.313    -609.560    -893.551
  H     -897.478    -610.697    -894.741
  H     -895.625    -613.733    -893.451
  H     -896.871    -612.448    -893.591
  H     -895.536    -612.219    -892.441
  H     -889.800    -604.343    -900.000
  H     -889.720    -605.637    -898.828
  H     -889.938    -603.987    -898.295

 3  4  5  6  7  8  9  10  11  12  13  21  23  27  28  29  30  32 0
 6-311+G(2d,p)
 ****
 34  35 0
 6-311+G(2d,p)
 ****
 1  2  14  15  16  17  18  19  20  22  24  25  26 0
 3-21G
 ****
 31  33  36  37  38  39  40  41  42  43  44  45  46 0
 3-21G
 ****


