%nproc=1
%NoSave
%Mem=1900MB
#P OB98/GEN NMR

erre ene a

0 1
  C       56.703      14.753    -144.073
  O       56.466      13.353    -144.039
  P       57.723      12.375    -143.845
  C       56.338      11.003    -142.136
  O       57.148      10.976    -143.302
  C       55.890       9.595    -141.743
  O       54.887       9.136    -142.690
  C       57.011       8.552    -141.730
  O       56.704       7.611    -140.694
  C       56.863       7.872    -143.077
  O       57.470       6.583    -143.102
  C       55.344       7.873    -143.217
  N       53.264       4.697    -146.641
  C       53.530       4.551    -145.326
  N       54.085       5.443    -144.480
  C       54.375       6.587    -145.121
  C       54.193       6.869    -146.464
  C       53.604       5.861    -147.245
  N       53.321       6.011    -148.582
  N       54.640       8.141    -146.757
  C       55.083       8.618    -145.613
  N       54.921       7.725    -144.593
  O       58.458      12.999    -142.568
  O       58.643      12.283    -145.012
  H       58.333       6.643    -142.649
  H       59.314      13.388    -142.834
  H       53.255       3.592    -144.894
  H       55.527       9.593    -145.473
  H       54.874       7.073    -142.631
  H       57.335       8.483    -143.854
  H       58.011       8.972    -141.577
  H       55.404       9.650    -140.761
  H       55.449      11.608    -142.340
  H       52.776       5.299    -149.038
  H       53.395       6.935    -148.996
  H       56.892      11.466    -141.315
  P       57.896       7.208    -139.701
  C       56.304       6.822    -137.691
  O       57.258       6.267    -138.575
  O       58.208       8.573    -138.925
  O       59.109       6.675    -140.389
  H       59.140       8.588    -138.638
  H       55.576       6.050    -137.426
  H       55.775       7.669    -138.139
  H       56.811       7.159    -136.782
  H       55.775      15.269    -144.207
  H       57.360      14.984    -144.885
  H       57.153      15.061    -143.152

 3  4  5  6  7  8  9  10  11  12  22  25  29  30  31  32 0
 6-311+G(2d,p)
 ****
 33  36  37 0
 6-311+G(2d,p)
 ****
 1  2  13  14  15  16  17  18  19  20  21  23  24  26 0
 3-21G
 ****
 27  28  34  35  38  39  40  41  42  43  44  45  46  47  48 0
 3-21G
 ****


