%nproc=1
%NoSave
%Mem=1900MB
#P OB98/GEN NMR

erre ene a

0 1
  C      489.440     -46.579     465.176
  O      489.006     -45.771     466.251
  H      490.044     -47.397     465.573
  H      490.047     -45.994     464.482
  H      488.576     -46.999     464.652
  P      488.188     -44.441     465.862
  C      490.120     -43.130     467.022
  O      489.315     -43.294     465.864
  C      490.518     -41.662     467.176
  O      491.403     -41.258     466.108
  C      489.349     -40.681     467.121
  O      488.604     -40.629     468.321
  C      490.104     -39.391     466.862
  O      490.752     -38.959     468.077
  C      491.142     -39.862     465.815
  N      490.667     -39.702     464.437
  C      490.786     -38.425     463.878
  O      491.254     -37.493     464.524
  N      490.330     -38.220     462.598
  C      489.819     -39.204     461.926
  N      489.382     -38.943     460.664
  C      489.691     -40.570     462.468
  C      490.128     -40.745     463.712
  O      487.356     -44.119     467.190
  O      487.370     -44.515     464.618
  H      491.103     -38.065     467.902
  H      486.928     -43.230     467.112
  H      489.249     -41.357     461.876
  H      490.069     -41.720     464.181
  H      492.085     -39.317     465.924
  H      489.467     -38.575     466.537
  H      488.694     -40.882     466.267
  H      491.077     -41.566     468.117
  H      489.429     -37.983     460.339
  H      491.018     -43.751     466.909
  H      488.838     -39.601     460.119
  H      489.571     -43.450     467.914
  P      487.016     -40.425     468.196
  C      487.051     -38.176     469.512
  O      486.737     -38.852     468.296
  O      486.465     -40.985     469.591
  O      486.386     -41.113     467.027
  H      485.594     -41.413     469.474
  H      486.807     -37.139     469.417
  H      488.096     -38.279     469.718
  H      486.485     -38.603     470.314

 6  7  8  9  10  11  12  13  14  15  16  26  30  31  32  33  35 0
 6-311+G(2d,p)
 ****
 37  38 0
 6-311+G(2d,p)
 ****
 1  2  3  4  5  17  18  19  20  21  22  23  24  25 0
 3-21G
 ****
 27  28  29  34  36  39  40  41  42  43  44  45  46 0
 3-21G
 ****


