%nproc=1
%NoSave
%Mem=1900MB
#P OB98/GEN NMR

erre ene a

0 1
  C     -688.197     301.787    -458.786
  O     -689.446     301.977    -458.146
  H     -687.563     301.174    -458.139
  H     -687.702     302.752    -458.942
  H     -688.323     301.274    -459.744
  P     -690.601     302.768    -458.931
  C     -690.417     304.980    -457.628
  O     -691.213     303.833    -457.890
  C     -690.931     305.721    -456.399
  O     -692.227     306.307    -456.709
  C     -691.110     304.826    -455.168
  O     -690.733     305.574    -454.002
  C     -692.598     304.552    -455.137
  O     -693.078     304.265    -453.823
  C     -693.166     305.841    -455.720
  N     -698.077     305.177    -454.700
  C     -697.018     305.454    -453.856
  N     -697.300     305.538    -452.538
  N     -695.791     305.624    -454.268
  C     -695.651     305.522    -455.614
  C     -696.622     305.253    -456.549
  C     -697.975     305.054    -456.083
  O     -698.948     304.802    -456.791
  N     -696.080     305.210    -457.815
  C     -694.793     305.446    -457.636
  N     -694.481     305.633    -456.316
  O     -691.623     301.907    -459.603
  O     -689.807     303.682    -459.976
  H     -694.044     304.110    -453.893
  H     -689.822     303.277    -460.863
  H     -699.003     305.048    -454.328
  H     -694.048     305.485    -458.423
  H     -693.289     306.629    -454.962
  H     -692.835     303.693    -455.784
  H     -698.224     305.432    -452.148
  H     -690.521     303.907    -455.218
  H     -696.542     305.761    -451.896
  H     -690.255     306.556    -456.181
  H     -690.462     305.642    -458.503
  H     -689.374     304.671    -457.472
  P     -689.222     305.473    -453.479
  C     -689.383     303.358    -452.008
  O     -689.240     304.775    -452.031
  O     -688.424     306.739    -453.566
  O     -688.595     304.332    -454.411
  H     -687.640     304.506    -454.524
  H     -689.381     303.016    -450.994
  H     -688.569     302.909    -452.538
  H     -690.306     303.085    -452.475

 6  7  8  9  10  11  12  13  14  15  26  29  33  34 0
 6-311+G(2d,p)
 ****
 36  38  39  40  41 0
 6-311+G(2d,p)
 ****
 1  2  3  4  5  16  17  18  19  20  21  22  23  24  25 0
 3-21G
 ****
 27  28  30  31  32  35  37  42  43  44  45  46  47 0
 3-21G
 ****
 48  49 0
 3-21G
 ****


