%nproc=1
%NoSave
%Mem=1900MB
#P OB98/GEN NMR

erre ene a

0 1
  C        2.117      44.082      84.347
  O        1.421      44.282      85.562
  P       -0.019      44.986      85.572
  C        0.760      46.984      87.016
  O        0.278      46.558      85.738
  C       -0.199      47.995      87.645
  O       -0.259      49.197      86.850
  C       -1.635      47.501      87.762
  O       -1.769      46.605      88.845
  C       -2.384      48.822      87.931
  O       -2.345      49.268      89.295
  C       -1.576      49.768      87.022
  N       -2.234      50.011      85.741
  C       -3.243      50.983      85.746
  O       -3.549      51.556      86.796
  N       -3.907      51.244      84.567
  C       -3.609      50.581      83.503
  N       -4.310      50.877      82.373
  C       -2.573      49.528      83.462
  C       -1.933      49.294      84.605
  O       -1.003      44.416      86.536
  O       -0.487      44.878      84.042
  H       -2.511      50.233      89.267
  H       -0.763      43.953      83.813
  H       -2.367      48.991      82.545
  H       -1.157      48.541      84.668
  H       -1.427      50.740      87.515
  H       -3.440      48.735      87.653
  H       -1.942      47.025      86.820
  H        0.193      48.260      88.635
  H       -5.030      51.584      82.453
  H        1.737      47.450      86.878
  H       -4.185      50.396      81.493
  H        0.882      46.110      87.660
  P       -2.807      45.389      88.755
  C       -3.624      46.339      90.997
  O       -3.991      45.684      89.802
  O       -2.206      44.023      88.838
  O       -3.518      45.610      87.333
  H       -3.585      44.752      86.876
  H       -4.528      46.769      91.454
  H       -2.909      47.139      90.802
  H       -3.189      45.616      91.689
  H        3.052      43.601      84.546
  H        2.295      45.027      83.878
  H        1.531      43.466      83.697

 3  4  5  6  7  8  9  10  11  12  13  23  27  28  29  30  32 0
 6-311+G(2d,p)
 ****
 34  35 0
 6-311+G(2d,p)
 ****
 1  2  14  15  16  17  18  19  20  21  22  24  25  26 0
 3-21G
 ****
 31  33  36  37  38  39  40  41  42  43  44  45  46 0
 3-21G
 ****


