%nproc=1
%NoSave
%Mem=1900MB
#P OB98/GEN NMR

erre ene a

0 1
  C      740.986     186.875     149.387
  O      741.908     187.354     150.346
  H      740.057     187.447     149.478
  H      740.770     185.821     149.578
  H      741.378     186.999     148.375
  P      743.407     186.791     150.245
  C      743.732     186.325     152.781
  O      744.109     187.107     151.657
  C      744.557     186.725     154.002
  O      745.971     186.588     153.722
  C      744.347     188.166     154.456
  O      743.188     188.301     155.268
  C      745.614     188.388     155.265
  O      745.495     187.749     156.551
  C      746.671     187.671     154.410
  N      751.029     189.878     153.068
  C      750.735     189.083     154.165
  N      751.744     188.849     155.030
  N      749.555     188.567     154.397
  C      748.638     188.891     153.449
  C      748.812     189.663     152.325
  C      750.119     190.225     152.079
  O      750.448     190.908     151.113
  N      747.652     189.756     151.594
  C      746.772     189.063     152.295
  N      747.321     188.518     153.429
  O      744.123     187.817     149.242
  O      743.532     185.384     149.767
  H      746.389     187.723     156.936
  H      744.763     187.321     148.691
  H      751.956     190.258     152.950
  H      745.737     188.921     152.020
  H      747.458     187.210     155.017
  H      745.819     189.450     155.450
  H      752.662     189.260     154.940
  H      744.330     188.857     153.606
  H      751.569     188.246     155.820
  H      744.318     186.024     154.816
  H      743.907     185.267     152.558
  H      742.665     186.481     152.980
  P      741.923     189.062     154.639
  C      741.757     190.499     156.796
  O      741.089     189.631     155.885
  O      741.014     187.854     154.099
  O      742.244     190.039     153.555
  H      740.418     188.170     153.396
  H      741.079     190.795     157.569
  H      742.103     191.366     156.274
  H      742.591     189.988     157.230

 6  7  8  9  10  11  12  13  14  15  26  29  33  34 0
 6-311+G(2d,p)
 ****
 36  38  39  40  41 0
 6-311+G(2d,p)
 ****
 1  2  3  4  5  16  17  18  19  20  21  22  23  24  25 0
 3-21G
 ****
 27  28  30  31  32  35  37  42  43  44  45  46  47 0
 3-21G
 ****
 48  49 0
 3-21G
 ****


