%nproc=1
%NoSave
%Mem=1900MB
#P OB98/GEN NMR

erre ene a

0 1
  C     -366.792    -259.732    -294.842
  O     -367.930    -259.778    -293.970
  P     -369.278    -259.057    -294.448
  C     -369.335    -257.573    -292.312
  O     -370.026    -258.487    -293.152
  C     -369.856    -257.671    -290.874
  O     -369.257    -258.784    -290.167
  C     -369.565    -256.437    -290.035
  O     -370.530    -255.416    -290.256
  C     -369.724    -256.996    -288.629
  O     -371.116    -257.074    -288.281
  C     -369.123    -258.401    -288.775
  N     -365.889    -257.975    -284.901
  C     -367.264    -257.859    -284.927
  N     -367.867    -257.600    -283.749
  N     -367.980    -257.986    -286.017
  C     -367.247    -258.263    -287.116
  C     -365.879    -258.402    -287.215
  C     -365.095    -258.245    -286.013
  O     -363.871    -258.315    -285.928
  N     -365.502    -258.672    -288.505
  C     -366.634    -258.723    -289.180
  N     -367.724    -258.463    -288.384
  O     -370.211    -260.292    -294.877
  O     -369.095    -258.090    -295.572
  H     -371.418    -256.161    -288.105
  H     -370.842    -260.006    -295.565
  H     -365.381    -257.858    -284.038
  H     -366.712    -258.939    -290.238
  H     -369.660    -259.147    -288.171
  H     -369.243    -256.363    -287.874
  H     -367.383    -257.541    -282.866
  H     -368.543    -256.083    -290.190
  H     -368.882    -257.545    -283.744
  H     -370.943    -257.836    -290.918
  H     -369.446    -256.551    -292.682
  H     -368.258    -257.789    -292.366
  P     -370.015    -254.000    -290.813
  C     -371.917    -252.786    -289.539
  O     -371.271    -253.019    -290.770
  O     -369.790    -254.295    -292.371
  O     -368.766    -253.498    -290.159
  H     -369.058    -253.746    -292.710
  H     -372.637    -251.974    -289.669
  H     -371.193    -252.492    -288.771
  H     -372.452    -253.682    -289.221
  H     -365.974    -260.253    -294.389
  H     -366.515    -258.713    -295.013
  H     -367.038    -260.196    -295.774

 3  4  5  6  7  8  9  10  11  12  23  26  30  31 0
 6-311+G(2d,p)
 ****
 33  35  36  37  38 0
 6-311+G(2d,p)
 ****
 1  2  13  14  15  16  17  18  19  20  21  22  24  25 0
 3-21G
 ****
 27  28  29  32  34  39  40  41  42  43  44  45  46  47  48  49 0
 3-21G
 ****


