%nproc=1
%NoSave
%Mem=1900MB
#P OB98/GEN NMR

erre ene a

0 1
  C      464.599    -134.051    -290.870
  O      465.092    -134.235    -292.187
  P      466.540    -134.877    -292.447
  C      465.566    -135.253    -294.813
  O      466.707    -134.894    -294.041
  C      465.659    -134.624    -296.198
  O      466.949    -134.912    -296.779
  C      464.631    -135.141    -297.198
  O      463.353    -134.575    -296.953
  C      465.284    -134.744    -298.516
  O      465.056    -133.351    -298.787
  C      466.781    -134.978    -298.215
  N      467.271    -136.244    -298.746
  C      467.613    -136.259    -300.100
  O      467.513    -135.250    -300.792
  N      468.107    -137.424    -300.637
  C      468.224    -138.485    -299.899
  N      468.780    -139.590    -300.470
  C      467.819    -138.526    -298.483
  C      467.363    -137.385    -297.975
  O      466.774    -136.193    -291.786
  O      467.567    -133.741    -292.004
  H      465.589    -133.126    -299.573
  H      467.810    -133.778    -291.046
  H      467.922    -139.436    -297.907
  H      467.067    -137.324    -296.937
  H      467.383    -134.164    -298.629
  H      464.918    -135.315    -299.376
  H      464.558    -136.233    -297.141
  H      465.570    -133.532    -296.088
  H      469.200    -139.461    -301.383
  H      464.670    -134.879    -294.307
  H      469.165    -140.335    -299.906
  H      465.507    -136.344    -294.879
  P      462.083    -135.549    -297.038
  C      460.695    -133.555    -296.134
  O      460.795    -134.590    -297.096
  O      462.026    -136.208    -295.579
  O      462.166    -136.578    -298.115
  H      462.400    -137.107    -295.597
  H      459.911    -132.863    -296.450
  H      461.638    -133.005    -296.053
  H      460.424    -133.972    -295.163
  H      463.624    -133.613    -290.912
  H      465.258    -133.404    -290.330
  H      464.543    -134.998    -290.375

 3  4  5  6  7  8  9  10  11  12  13  23  27  28  29  30  32 0
 6-311+G(2d,p)
 ****
 34  35 0
 6-311+G(2d,p)
 ****
 1  2  14  15  16  17  18  19  20  21  22  24  25  26 0
 3-21G
 ****
 31  33  36  37  38  39  40  41  42  43  44  45  46 0
 3-21G
 ****


