%nproc=1
%NoSave
%Mem=1900MB
#P OB98/GEN NMR

erre ene a

0 1
  C     -173.923     456.090     -42.958
  O     -174.482     457.354     -43.279
  P     -174.085     458.661     -42.450
  C     -175.360     457.951     -40.267
  O     -175.176     458.884     -41.309
  C     -176.074     458.643     -39.100
  O     -175.177     459.563     -38.442
  C     -177.290     459.434     -39.575
  O     -178.473     458.656     -39.458
  C     -177.275     460.647     -38.666
  O     -177.869     460.331     -37.393
  C     -175.759     460.894     -38.501
  N     -175.055     461.650     -39.558
  C     -175.540     462.896     -39.949
  O     -176.516     463.438     -39.444
  N     -174.863     463.498     -40.979
  C     -173.755     463.003     -41.604
  O     -173.311     463.424     -42.665
  C     -173.141     461.832     -40.969
  C     -173.820     461.206     -40.008
  O     -174.378     459.846     -43.483
  O     -172.679     458.695     -41.941
  H     -177.571     459.433     -37.150
  H     -173.554     460.135     -43.917
  H     -175.292     464.335     -41.362
  H     -172.186     461.486     -41.342
  H     -173.404     460.314     -39.549
  H     -175.543     461.394     -37.550
  H     -177.867     461.460     -39.082
  H     -177.146     459.770     -40.610
  H     -176.376     457.884     -38.366
  H     -174.391     457.557     -39.941
  H     -175.954     457.104     -40.622
  P     -179.412     458.444     -40.735
  C     -180.185     460.884     -40.688
  O     -180.577     459.533     -40.586
  O     -179.866     457.043     -40.974
  O     -178.514     458.992     -41.944
  H     -178.073     458.244     -42.397
  H     -181.083     461.509     -40.748
  H     -179.582     461.045     -41.585
  H     -179.616     461.174     -39.801
  H     -174.312     455.348     -43.624
  H     -174.176     455.833     -41.951
  H     -172.859     456.135     -43.058

 3  4  5  6  7  8  9  10  11  12  13  23  28  29  30  31  32 0
 6-311+G(2d,p)
 ****
 33  34 0
 6-311+G(2d,p)
 ****
 1  2  14  15  16  17  18  19  20  21  22  24  25  26  27 0
 3-21G
 ****
 35  36  37  38  39  40  41  42  43  44  45 0
 3-21G
 ****


