%nproc=1
%NoSave
%Mem=1900MB
#P OB98/GEN NMR

erre ene a

0 1
  C       99.854    -682.728       8.243
  O       99.525    -683.661       7.208
  P       99.533    -683.123       5.692
  C       96.935    -682.793       5.543
  O       98.226    -682.199       5.559
  C       95.889    -681.757       5.145
  O       96.261    -681.100       3.908
  C       94.503    -682.339       4.888
  O       93.851    -682.671       6.105
  C       93.851    -681.203       4.109
  O       93.395    -680.174       5.005
  C       95.035    -680.674       3.265
  N       94.984    -681.100       1.874
  C       94.297    -680.257       1.006
  O       93.743    -679.220       1.377
  N       94.252    -680.647      -0.303
  C       94.788    -681.796      -0.814
  O       94.728    -682.093      -1.993
  C       95.457    -682.672       0.162
  C       95.527    -682.295       1.438
  O       99.170    -684.449       4.889
  O      100.826    -682.480       5.314
  H       98.544    -685.025       5.365
  H       92.727    -680.585       5.581
  H       93.769    -680.044      -0.950
  H       95.873    -683.601      -0.202
  H       96.012    -682.926       2.172
  H       95.054    -679.574       3.285
  H       92.989    -681.537       3.524
  H       94.584    -683.226       4.253
  H       95.840    -680.997       5.934
  H       96.694    -683.184       6.538
  H       96.945    -683.639       4.852
  P       93.993    -684.200       6.603
  C       91.826    -684.672       5.218
  O       93.120    -685.087       5.595
  O       93.127    -684.165       7.948
  O       95.408    -684.640       6.790
  H       92.286    -683.687       7.842
  H       91.544    -685.190       4.298
  H       91.784    -683.594       5.041
  H       91.114    -684.938       6.009
  H       99.809    -683.219       9.193
  H       99.156    -681.917       8.227
  H      100.842    -682.351       8.082

 3  4  5  6  7  8  9  10  11  12  13  24  28  29  30  31  32 0
 6-311+G(2d,p)
 ****
 33  34 0
 6-311+G(2d,p)
 ****
 1  2  14  15  16  17  18  19  20  21  22  23  25  26  27 0
 3-21G
 ****
 35  36  37  38  39  40  41  42  43  44  45 0
 3-21G
 ****


