%nproc=1
%NoSave
%Mem=1900MB
#P OB98/GEN NMR

erre ene a

0 1
  C      926.272    -894.020    -255.239
  O      925.256    -894.090    -254.258
  H      927.250    -894.120    -254.745
  H      926.239    -893.080    -255.773
  H      926.166    -894.860    -255.946
  P      923.737    -893.860    -254.721
  C      923.574    -896.430    -254.869
  O      923.363    -895.200    -255.529
  C      922.399    -897.380    -255.130
  O      921.191    -896.900    -254.499
  C      922.023    -897.540    -256.605
  O      922.933    -898.350    -257.334
  C      920.663    -898.190    -256.459
  O      920.816    -899.580    -256.108
  C      920.069    -897.370    -255.279
  N      919.223    -896.280    -255.704
  C      917.832    -896.450    -255.571
  O      917.384    -897.490    -255.111
  N      916.997    -895.450    -256.000
  C      917.492    -894.380    -256.537
  N      916.613    -893.440    -256.979
  C      918.943    -894.130    -256.680
  C      919.734    -895.120    -256.255
  O      923.457    -892.580    -255.436
  O      922.883    -894.040    -253.382
  H      921.329    -900.000    -256.809
  H      921.934    -893.910    -253.613
  H      919.298    -893.240    -257.137
  H      920.818    -895.020    -256.344
  H      919.476    -898.040    -254.627
  H      920.066    -898.150    -257.379
  H      921.892    -896.570    -257.084
  H      922.629    -898.350    -254.672
  H      915.629    -893.650    -256.895
  H      923.689    -896.240    -253.799
  H      916.907    -892.730    -257.641
  H      924.490    -896.910    -255.250
  P      922.702    -898.500    -258.923
  C      924.859    -897.480    -259.989
  O      923.497    -897.290    -259.634
  O      921.164    -898.080    -259.089
  O      923.011    -899.850    -259.497
  H      920.594    -898.870    -259.083
  H      925.236    -896.589    -260.447
  H      924.938    -898.296    -260.677
  H      925.429    -897.698    -259.110

 6  7  8  9  10  11  12  13  14  15  16  26  30  31  32  33  35 0
 6-311+G(2d,p)
 ****
 37  38 0
 6-311+G(2d,p)
 ****
 1  2  3  4  5  17  18  19  20  21  22  23  24  25 0
 3-21G
 ****
 27  28  29  34  36  39  40  41  42  43  44  45  46 0
 3-21G
 ****


