%nproc=1
%NoSave
%Mem=1900MB
#P OB98/GEN NMR

erre ene a

0 1
  C     -370.248      18.110     157.587
  O     -370.458      19.088     158.587
  H     -370.215      17.123     158.057
  H     -369.296      18.289     157.080
  H     -371.064      18.128     156.858
  P     -370.652      20.602     158.098
  C     -373.227      20.392     157.754
  O     -372.163      21.004     158.469
  C     -374.561      20.725     158.426
  O     -374.682      19.925     159.636
  C     -374.687      22.197     158.832
  O     -376.038      22.625     158.646
  C     -374.354      22.178     160.318
  O     -374.888      23.279     161.037
  C     -374.954      20.828     160.729
  N     -374.382      20.317     161.973
  C     -375.254      20.093     163.034
  O     -376.479      20.224     162.977
  N     -374.670      19.699     164.211
  C     -373.328      19.534     164.431
  O     -372.864      19.204     165.515
  C     -372.458      19.797     163.273
  C     -373.016      20.170     162.120
  O     -370.691      20.472     156.502
  O     -369.622      21.572     158.570
  H     -369.793      20.561     156.130
  H     -374.509      23.262     161.941
  H     -375.286      19.530     164.990
  H     -371.390      19.687     163.414
  H     -372.398      20.382     161.252
  H     -376.044      20.909     160.827
  H     -373.268      22.177     160.458
  H     -374.011      22.852     158.277
  H     -375.381      20.430     157.758
  H     -373.083      19.306     157.756
  H     -373.223      20.752     156.720
  P     -376.326      23.660     157.451
  C     -376.693      22.480     155.146
  O     -377.242      22.865     156.392
  O     -374.893      23.747     156.753
  O     -376.880      24.961     157.928
  H     -374.414      22.897     156.742
  H     -377.436      21.966     154.573
  H     -375.857      21.832     155.309
  H     -376.371      23.351     154.614

 6  7  8  9  10  11  12  13  14  15  16  27  31  32  33  34  35 0
 6-311+G(2d,p)
 ****
 36  37 0
 6-311+G(2d,p)
 ****
 1  2  3  4  5  17  18  19  20  21  22  23  24  25 0
 3-21G
 ****
 26  28  29  30  38  39  40  41  42  43  44  45 0
 3-21G
 ****


