%nproc=1
%NoSave
%Mem=1900MB
#P OB98/GEN NMR

erre ene a

0 1
  C     -277.251     -99.468     -55.472
  O     -278.588     -99.425     -55.019
  H     -276.677     -98.707     -54.936
  H     -277.205     -99.249     -56.541
  H     -276.808    -100.446     -55.270
  P     -279.646    -100.448     -55.656
  C     -280.668     -98.617     -57.178
  O     -279.951     -99.840     -57.113
  C     -281.786     -98.716     -58.213
  O     -281.257     -98.947     -59.537
  C     -282.769     -99.859     -57.989
  O     -283.664     -99.642     -56.913
  C     -283.472     -99.866     -59.335
  O     -284.396     -98.768     -59.404
  C     -282.277     -99.658     -60.293
  N     -281.744    -100.919     -60.813
  C     -282.613    -101.690     -61.592
  O     -283.764    -101.316     -61.810
  N     -282.168    -102.896     -62.084
  C     -280.969    -103.303     -61.802
  N     -280.582    -104.505     -62.309
  C     -280.029    -102.530     -60.967
  C     -280.474    -101.362     -60.513
  O     -280.850    -100.751     -54.823
  O     -278.781    -101.743     -56.022
  H     -283.902     -97.964     -59.157
  H     -279.393    -102.415     -56.412
  H     -279.051    -102.929     -60.736
  H     -279.844    -100.739     -59.887
  H     -282.560     -99.020     -61.139
  H     -284.042    -100.780     -59.518
  H     -282.238    -100.813     -57.869
  H     -282.298     -97.744     -58.236
  H     -281.248    -105.013     -62.876
  H     -279.963     -97.820     -57.436
  H     -279.695    -104.936     -62.076
  H     -281.117     -98.394     -56.205
  P     -284.135    -100.939     -56.085
  C     -286.299    -101.255     -57.516
  O     -285.060    -101.792     -57.076
  O     -285.158    -100.335     -55.016
  O     -283.030    -101.722     -55.447
  H     -284.721    -100.206     -54.153
  H     -286.780    -101.955     -58.167
  H     -286.124    -100.340     -58.043
  H     -286.926    -101.065     -56.670

 6  7  8  9  10  11  12  13  14  15  16  26  30  31  32  33  35 0
 6-311+G(2d,p)
 ****
 37  38 0
 6-311+G(2d,p)
 ****
 1  2  3  4  5  17  18  19  20  21  22  23  24  25 0
 3-21G
 ****
 27  28  29  34  36  39  40  41  42  43  44  45  46 0
 3-21G
 ****


