%nproc=1
%NoSave
%Mem=1900MB
#P OB98/GEN NMR

erre ene a

0 1
  C      370.867    -869.860    -340.146
  O      371.702    -868.728    -340.217
  H      371.311    -870.578    -339.450
  H      370.777    -870.330    -341.129
  H      369.867    -869.595    -339.781
  P      371.134    -867.396    -340.907
  C      370.730    -866.360    -338.575
  O      370.177    -866.682    -339.837
  C      369.647    -866.321    -337.488
  O      368.606    -865.400    -337.903
  C      368.988    -867.694    -337.305
  O      368.490    -867.869    -335.983
  C      367.825    -867.639    -338.280
  O      366.774    -868.547    -337.947
  C      367.420    -866.169    -338.167
  N      364.023    -862.901    -340.141
  C      364.239    -863.234    -338.822
  N      363.460    -862.616    -337.904
  N      365.135    -864.114    -338.441
  C      365.791    -864.702    -339.465
  C      365.648    -864.479    -340.817
  C      364.685    -863.471    -341.230
  O      364.424    -863.159    -342.377
  N      366.473    -865.279    -341.560
  C      367.130    -865.993    -340.658
  N      366.767    -865.663    -339.374
  O      370.097    -867.944    -341.999
  O      372.167    -866.494    -341.528
  H      366.000    -868.335    -338.508
  H      369.957    -867.276    -342.703
  H      363.341    -862.186    -340.374
  H      367.881    -866.745    -340.888
  H      366.720    -866.008    -337.335
  H      368.183    -867.910    -339.270
  H      362.642    -862.087    -338.175
  H      369.656    -868.513    -337.561
  H      363.394    -863.074    -336.982
  H      370.068    -865.924    -336.558
  H      371.210    -865.382    -338.680
  H      371.521    -867.065    -338.311
  P      368.946    -869.169    -335.150
  C      370.223    -867.928    -333.192
  O      370.233    -868.836    -334.284
  O      369.509    -870.165    -336.290
  O      367.864    -869.811    -334.346
  H      368.953    -870.963    -336.349
  H      371.204    -867.870    -332.768
  H      369.533    -868.271    -332.449
  H      369.925    -866.960    -333.536

 6  7  8  9  10  11  12  13  14  15  26  29  33  34 0
 6-311+G(2d,p)
 ****
 36  38  39  40  41 0
 6-311+G(2d,p)
 ****
 1  2  3  4  5  16  17  18  19  20  21  22  23  24  25 0
 3-21G
 ****
 27  28  30  31  32  35  37  42  43  44  45  46  47 0
 3-21G
 ****
 48  49 0
 3-21G
 ****


