%nproc=1
%NoSave
%Mem=1900MB
#P OB98/GEN NMR

erre ene a

0 1
  C     -108.084     426.336    -126.614
  O     -107.807     424.933    -126.712
  P     -106.411     424.355    -127.253
  C     -107.386     424.331    -129.640
  O     -106.274     424.675    -128.817
  C     -107.383     425.124    -130.950
  O     -107.379     426.538    -130.686
  C     -106.177     424.876    -131.846
  O     -106.280     423.632    -132.515
  C     -106.232     426.099    -132.758
  O     -107.168     425.904    -133.828
  C     -106.725     427.195    -131.791
  N     -105.650     428.064    -131.334
  C     -105.252     429.079    -132.212
  O     -105.762     429.174    -133.327
  N     -104.269     429.949    -131.805
  C     -103.684     429.771    -130.663
  N     -102.721     430.670    -130.312
  C     -104.008     428.662    -129.750
  C     -104.994     427.856    -130.146
  O     -106.167     422.924    -126.899
  O     -105.293     425.289    -126.584
  H     -108.049     426.124    -133.468
  H     -104.481     424.764    -126.446
  H     -103.478     428.534    -128.820
  H     -105.304     427.019    -129.530
  H     -107.495     427.809    -132.273
  H     -105.265     426.328    -133.214
  H     -105.259     424.911    -131.247
  H     -108.313     424.884    -131.488
  H     -102.527     431.423    -130.957
  H     -108.304     424.552    -129.087
  H     -102.208     430.622    -129.446
  H     -107.351     423.255    -129.849
  P     -105.282     422.439    -132.134
  C     -103.732     423.084    -134.074
  O     -103.831     422.827    -132.685
  O     -105.754     421.066    -132.490
  O     -105.104     422.587    -130.547
  H     -104.963     421.704    -130.160
  H     -102.848     423.704    -134.254
  H     -104.617     423.611    -134.442
  H     -103.618     422.138    -134.610
  H     -109.072     426.478    -126.229
  H     -108.011     426.783    -127.584
  H     -107.375     426.794    -125.956

 3  4  5  6  7  8  9  10  11  12  13  23  27  28  29  30  32 0
 6-311+G(2d,p)
 ****
 34  35 0
 6-311+G(2d,p)
 ****
 1  2  14  15  16  17  18  19  20  21  22  24  25  26 0
 3-21G
 ****
 31  33  36  37  38  39  40  41  42  43  44  45  46 0
 3-21G
 ****


