%nproc=1
%NoSave
%Mem=1900MB
#P OB98/GEN NMR

erre ene a

0 1
  C      786.411      81.128     -84.911
  O      786.186      82.287     -84.101
  P      786.541      82.145     -82.533
  C      784.387      82.783     -81.214
  O      785.638      83.212     -81.739
  C      784.075      83.495     -79.899
  O      785.141      83.310     -78.944
  C      783.923      85.006     -80.022
  O      782.641      85.365     -80.524
  C      784.093      85.447     -78.581
  O      782.842      85.303     -77.881
  C      785.132      84.446     -78.042
  N      789.584      84.261     -75.635
  C      788.424      83.544     -75.403
  N      788.469      82.627     -74.408
  N      787.322      83.711     -76.088
  C      787.436      84.644     -77.070
  C      788.525      85.413     -77.395
  C      789.730      85.246     -76.606
  O      790.779      85.872     -76.745
  N      788.262      86.240     -78.460
  C      787.024      85.940     -78.797
  N      786.474      84.984     -77.982
  O      788.014      82.763     -82.441
  O      786.490      80.740     -82.022
  H      782.496      84.413     -78.109
  H      788.493      82.374     -81.683
  H      790.405      84.099     -75.069
  H      786.480      86.387     -79.628
  H      784.862      84.069     -77.052
  H      784.388      86.499     -78.488
  H      789.304      82.401     -73.894
  H      784.735      85.435     -80.640
  H      787.638      82.071     -74.255
  H      783.154      83.061     -79.480
  H      784.407      81.701     -81.040
  H      783.598      82.969     -81.957
  P      782.587      86.166     -81.913
  C      780.573      87.788     -81.773
  O      781.044      86.505     -82.151
  O      782.904      85.028     -82.997
  O      783.544      87.315     -82.014
  H      783.335      85.417     -83.788
  H      781.269      88.571     -82.058
  H      780.413      87.803     -80.684
  H      779.604      87.973     -82.271
  H      786.141      81.343     -85.924
  H      785.815      80.317     -84.547
  H      787.445      80.858     -84.867

 3  4  5  6  7  8  9  10  11  12  23  26  30  31  33  0
 6-311+G(2d,p)
 ****
 35  36  37  38 0
 6-311+G(2d,p)
 ****
 1  2  13  14  15  16  17  18  19  20  21  22  24  25  27  28  29 0
 3-21G
 ****
 32  34  39  40  41  42  43  44  45  46  47  48  49 0
 3-21G
 ****


