%nproc=1
%NoSave
%Mem=1900MB
#P OB98/GEN NMR

erre ene a

0 1
  C     -281.781    -737.761     -23.882
  O     -280.790    -737.106     -24.651
  H     -281.843    -738.814     -24.163
  H     -281.504    -737.693     -22.822
  H     -282.751    -737.274     -24.024
  P     -280.983    -737.121     -26.242
  C     -279.840    -734.958     -27.105
  O     -281.059    -735.584     -26.721
  C     -279.393    -733.973     -26.027
  O     -279.152    -734.714     -24.807
  C     -278.123    -733.176     -26.364
  O     -278.389    -731.773     -26.326
  C     -277.153    -733.508     -25.245
  O     -276.397    -732.396     -24.796
  C     -278.060    -734.055     -24.144
  N     -274.983    -734.380     -20.097
  C     -275.829    -733.412     -20.499
  N     -276.703    -733.425     -21.525
  C     -276.668    -734.616     -22.156
  C     -275.872    -735.713     -21.845
  C     -274.987    -735.557     -20.771
  N     -274.085    -736.529     -20.394
  N     -276.118    -736.754     -22.727
  C     -277.001    -736.282     -23.584
  N     -277.351    -734.984     -23.286
  O     -282.490    -737.641     -26.423
  O     -280.012    -737.969     -26.992
  H     -275.740    -732.204     -25.486
  H     -282.516    -738.348     -27.097
  H     -275.796    -732.488     -19.918
  H     -277.392    -736.802     -24.445
  H     -278.472    -733.259     -23.520
  H     -276.457    -734.283     -25.602
  H     -277.704    -733.446     -27.345
  H     -280.231    -733.285     -25.824
  H     -279.994    -734.410     -28.044
  H     -273.406    -736.290     -19.689
  H     -274.005    -737.365     -20.962
  H     -279.079    -735.726     -27.269
  P     -279.353    -731.182     -27.470
  C     -280.729    -729.486     -26.053
  O     -280.716    -730.713     -26.759
  O     -279.788    -732.497     -28.279
  O     -278.697    -730.177     -28.356
  H     -280.003    -732.270     -29.205
  H     -281.703    -729.321     -25.642
  H     -280.484    -728.687     -26.721
  H     -280.010    -729.522     -25.262

 6  7  8  9  10  11  12  13  14  15  25  28  32  33  34  35 0
 6-311+G(2d,p)
 ****
 36  39  40 0
 6-311+G(2d,p)
 ****
 1  2  3  4  5  16  17  18  19  20  21  22  23  24 0
 3-21G
 ****
 26  27  29  30  31  37  38  41  42  43  44  45  46  47  48 0
 3-21G
 ****


