%nproc=1
%NoSave
%Mem=1900MB
#P OB98/GEN NMR

erre ene a

0 1
  C      -12.983     -30.800      11.587
  O      -12.205     -30.450      12.712
  H      -12.352     -31.348      10.882
  H      -13.363     -29.902      11.094
  H      -13.815     -31.441      11.888
  P      -12.929     -29.582      13.851
  C      -11.694     -27.338      13.422
  O      -11.889     -28.444      14.292
  C      -10.762     -26.327      14.080
  O      -10.579     -25.188      13.210
  C      -11.290     -25.757      15.389
  O      -11.115     -26.650      16.474
  C      -10.444     -24.501      15.517
  O       -9.164     -24.786      16.103
  C      -10.293     -24.051      14.048
  N      -11.146     -22.909      13.733
  C      -10.551     -21.658      13.862
  O       -9.384     -21.500      14.217
  N      -11.357     -20.584      13.604
  C      -12.680     -20.637      13.275
  O      -13.365     -19.634      13.128
  C      -13.251     -21.987      13.140
  C      -12.473     -23.045      13.381
  O      -12.957     -30.580      15.103
  O      -14.290     -29.085      13.497
  H      -13.849     -30.958      15.207
  H       -8.684     -25.338      15.455
  H      -10.947     -19.669      13.702
  H      -14.298     -22.066      12.873
  H      -12.878     -24.050      13.307
  H       -9.254     -23.762      13.843
  H      -10.924     -23.758      16.153
  H      -12.341     -25.466      15.280
  H       -9.784     -26.804      14.232
  H      -12.657     -26.858      13.220
  H      -11.275     -27.698      12.477
  P      -12.416     -27.182      17.245
  C      -12.187     -25.520      19.266
  O      -12.189     -26.856      18.799
  O      -12.210     -28.764      17.145
  O      -13.698     -26.676      16.680
  H      -11.277     -29.030      17.202
  H      -12.021     -25.512      20.323
  H      -13.131     -25.065      19.050
  H      -11.407     -24.973      18.778

 6  7  8  9  10  11  12  13  14  15  16  27  31  32  33  34  35 0
 6-311+G(2d,p)
 ****
 36  37 0
 6-311+G(2d,p)
 ****
 1  2  3  4  5  17  18  19  20  21  22  23  24  25 0
 3-21G
 ****
 26  28  29  30  38  39  40  41  42  43  44  45 0
 3-21G
 ****


