%nproc=1
%NoSave
%Mem=1900MB
#P OB98/GEN NMR

erre ene a

0 1
  C       84.234     -18.410       1.365
  O       83.632     -18.961       2.516
  P       82.062     -18.804       2.792
  C       82.204     -16.663       4.220
  O       81.782     -17.231       2.984
  C       81.701     -15.219       4.339
  O       82.127     -14.477       3.153
  C       80.164     -15.125       4.430
  O       79.683     -14.363       5.538
  C       79.778     -14.595       3.057
  O       78.505     -13.982       3.014
  C       80.985     -13.715       2.713
  N       81.049     -13.382       1.293
  C       80.265     -12.320       0.853
  O       79.537     -11.647       1.578
  N       80.285     -12.077      -0.494
  C       80.903     -12.842      -1.436
  O       80.797     -12.623      -2.636
  C       81.685     -13.975      -0.915
  C       81.744     -14.179       0.403
  O       81.516     -19.662       3.883
  O       81.411     -19.082       1.355
  H       78.452     -13.350       3.755
  H       81.699     -18.476       0.650
  H       79.720     -11.310      -0.825
  H       82.178     -14.605      -1.642
  H       82.313     -15.005       0.815
  H       80.976     -12.785       3.286
  H       79.744     -15.449       2.367
  H       79.718     -16.115       4.576
  H       82.177     -14.772       5.217
  H       83.296     -16.666       4.254
  H       81.846     -17.277       5.053
  P       78.540     -14.838       6.553
  C       76.603     -13.452       5.507
  O       77.129     -14.730       5.803
  O       78.587     -14.207       7.904
  O       78.772     -16.420       6.661
  H       78.478     -16.733       7.538
  H       75.511     -13.521       5.487
  H       76.951     -13.140       4.518
  H       76.900     -12.711       6.253
  H       85.282     -18.627       1.372
  H       84.089     -17.350       1.359
  H       83.788     -18.836       0.491

 3  4  5  6  7  8  9  10  11  12  13  23  28  29  30  31  32 0
 6-311+G(2d,p)
 ****
 33  34 0
 6-311+G(2d,p)
 ****
 1  2  14  15  16  17  18  19  20  21  22  24  25  26  27 0
 3-21G
 ****
 35  36  37  38  39  40  41  42  43  44  45 0
 3-21G
 ****


