%nproc=1
%NoSave
%Mem=1900MB
#P OB98/GEN NMR

erre ene a

0 1
  C      -96.695      99.193      58.113
  O      -95.846      98.096      57.847
  H      -97.659      98.814      58.459
  H      -96.850      99.782      57.206
  H      -96.259      99.823      58.894
  P      -94.407      98.439      57.216
  C      -94.988      96.953      55.151
  O      -94.633      98.239      55.636
  C      -96.085      97.076      54.097
  O      -97.029      98.106      54.464
  C      -95.586      97.464      52.707
  O      -95.001      96.385      51.997
  C      -96.895      97.911      52.078
  O      -97.694      96.758      51.756
  C      -97.516      98.718      53.238
  N      -97.168     100.141      53.198
  C      -97.770     100.962      54.160
  O      -98.552     100.495      54.985
  N      -97.500     102.310      54.138
  C      -96.682     102.794      53.254
  N      -96.456     104.136      53.284
  C      -96.016     101.966      52.235
  C      -96.299     100.664      52.263
  O      -93.518      97.167      57.607
  O      -93.817      99.752      57.606
  H      -97.137      96.177      51.207
  H      -92.647      97.209      57.139
  H      -95.353     102.417      51.509
  H      -95.846      99.992      51.544
  H      -98.610      98.627      53.238
  H      -96.760      98.472      51.153
  H      -94.904      98.321      52.750
  H      -96.632      96.126      54.072
  H      -96.973     104.686      53.958
  H      -95.343      96.353      55.996
  H      -95.959     104.626      52.551
  H      -94.114      96.464      54.709
  P      -93.433      96.487      51.671
  C      -93.694      95.953      49.134
  O      -93.305      96.897      50.127
  O      -92.960      94.959      51.688
  O      -92.643      97.329      52.623
  H      -92.047      94.881      52.026
  H      -93.549      96.377      48.162
  H      -94.727      95.704      49.264
  H      -93.099      95.069      49.230

 6  7  8  9  10  11  12  13  14  15  16  26  30  31  32  33  35 0
 6-311+G(2d,p)
 ****
 37  38 0
 6-311+G(2d,p)
 ****
 1  2  3  4  5  17  18  19  20  21  22  23  24  25 0
 3-21G
 ****
 27  28  29  34  36  39  40  41  42  43  44  45  46 0
 3-21G
 ****


