%nproc=1
%NoSave
%Mem=1900MB
#P OB98/GEN NMR

erre ene a

0 1
  C      179.059    -200.237     -18.267
  O      179.716    -201.255     -18.999
  H      178.617    -199.531     -18.971
  H      179.761    -199.703     -17.622
  H      178.257    -200.675     -17.660
  P      180.676    -202.261     -18.199
  C      178.910    -204.141     -18.190
  O      179.690    -203.249     -17.399
  C      178.674    -205.464     -17.465
  O      179.927    -206.115     -17.169
  C      177.982    -205.320     -16.117
  O      176.648    -204.870     -16.180
  C      178.287    -206.658     -15.464
  O      177.384    -207.683     -15.880
  C      179.706    -206.948     -16.005
  N      180.741    -206.748     -14.994
  C      181.224    -207.895     -14.381
  O      180.815    -209.026     -14.635
  N      182.189    -207.699     -13.429
  C      182.664    -206.494     -13.005
  O      183.511    -206.381     -12.129
  C      182.079    -205.312     -13.665
  C      181.162    -205.486     -14.614
  O      181.718    -201.612     -17.335
  O      181.282    -203.204     -19.341
  H      177.482    -208.426     -15.251
  H      182.071    -203.702     -19.013
  H      182.565    -208.522     -12.982
  H      182.424    -204.339     -13.346
  H      180.721    -204.633     -15.117
  H      179.774    -207.989     -16.357
  H      178.236    -206.605     -14.374
  H      178.525    -204.563     -15.533
  H      178.106    -206.123     -18.132
  H      179.465    -204.336     -19.116
  H      177.957    -203.670     -18.441
  P      175.883    -204.187     -14.963
  C      176.292    -201.713     -15.712
  O      176.496    -202.721     -14.728
  O      175.634    -205.044     -13.762
  O      174.448    -203.850     -15.631
  H      173.777    -203.947     -14.927
  H      176.764    -200.806     -15.397
  H      175.243    -201.544     -15.837
  H      176.716    -202.031     -16.642

 6  7  8  9  10  11  12  13  14  15  16  26  31  32  33  34  35 0
 6-311+G(2d,p)
 ****
 36  37 0
 6-311+G(2d,p)
 ****
 1  2  3  4  5  17  18  19  20  21  22  23  24  25 0
 3-21G
 ****
 27  28  29  30  38  39  40  41  42  43  44  45 0
 3-21G
 ****


