%nproc=1
%NoSave
%Mem=1900MB
#P OB98/GEN NMR

erre ene a

0 1
  C     -381.755     103.588    -188.080
  O     -382.494     103.088    -189.176
  H     -382.110     103.104    -187.166
  H     -381.901     104.667    -187.986
  H     -380.693     103.367    -188.209
  P     -382.191     103.757    -190.605
  C     -383.054     105.957    -191.713
  O     -383.021     105.132    -190.558
  C     -383.908     107.191    -191.440
  O     -385.290     106.821    -191.254
  C     -383.516     107.953    -190.178
  O     -382.374     108.774    -190.359
  C     -384.772     108.773    -189.952
  O     -384.803     109.871    -190.884
  C     -385.870     107.735    -190.282
  N     -386.339     107.002    -189.104
  C     -387.387     107.582    -188.380
  O     -387.868     108.659    -188.726
  N     -387.845     106.943    -187.252
  C     -387.314     105.817    -186.886
  N     -387.800     105.234    -185.757
  C     -386.221     105.164    -187.630
  C     -385.786     105.802    -188.713
  O     -383.048     102.869    -191.627
  O     -380.751     103.899    -190.969
  H     -384.059     110.458    -190.655
  H     -383.027     103.280    -192.524
  H     -385.803     104.229    -187.278
  H     -384.983     105.382    -189.308
  H     -386.732     108.216    -190.759
  H     -384.832     109.199    -188.950
  H     -383.381     107.278    -189.326
  H     -383.857     107.838    -192.327
  H     -388.505     105.736    -185.233
  H     -383.477     105.378    -192.539
  H     -387.332     104.460    -185.298
  H     -382.038     106.270    -191.980
  P     -381.657     109.352    -189.042
  C     -381.630     111.637    -187.805
  O     -382.251     110.821    -188.790
  O     -380.165     109.640    -189.542
  O     -381.683     108.439    -187.856
  H     -379.511     109.414    -188.852
  H     -382.134     112.579    -187.753
  H     -380.605     111.795    -188.067
  H     -381.684     111.151    -186.853

 6  7  8  9  10  11  12  13  14  15  16  26  30  31  32  33  35 0
 6-311+G(2d,p)
 ****
 37  38 0
 6-311+G(2d,p)
 ****
 1  2  3  4  5  17  18  19  20  21  22  23  24  25 0
 3-21G
 ****
 27  28  29  34  36  39  40  41  42  43  44  45  46 0
 3-21G
 ****


