%nproc=1
%NoSave
%Mem=1900MB
#P OB98/GEN NMR

erre ene a

0 1
  C     -208.260     170.039      40.563
  O     -207.564     169.041      41.289
  P     -205.995     168.817      41.071
  C     -204.475     167.548      39.443
  O     -205.818     167.807      39.833
  C     -204.409     166.928      38.049
  O     -205.030     167.832      37.096
  C     -202.987     166.637      37.540
  O     -203.066     165.450      36.740
  C     -202.694     167.835      36.651
  O     -201.658     167.589      35.710
  C     -204.078     168.058      36.036
  N     -203.490     171.034      31.912
  C     -203.176     169.737      32.139
  N     -203.342     169.026      33.275
  C     -203.889     169.781      34.240
  C     -204.229     171.124      34.164
  C     -204.023     171.755      32.928
  N     -204.366     173.067      32.668
  N     -204.713     171.568      35.387
  C     -204.662     170.512      36.173
  N     -204.233     169.393      35.504
  O     -205.230     168.438      42.297
  O     -205.478     170.212      40.479
  H     -201.352     168.445      35.354
  H     -204.980     170.696      41.163
  H     -202.748     169.200      31.296
  H     -204.923     170.498      37.223
  H     -204.283     167.345      35.230
  H     -202.397     168.693      37.272
  H     -202.241     166.512      38.336
  H     -205.007     166.006      38.053
  H     -204.038     166.854      40.171
  H     -204.298     173.380      31.707
  H     -205.006     173.543      33.301
  H     -203.895     168.483      39.468
  P     -201.737     164.812      36.118
  C     -200.064     165.540      34.318
  O     -201.393     165.656      34.799
  O     -201.765     163.326      35.933
  O     -200.589     165.257      37.148
  H     -199.804     164.701      37.024
  H     -199.405     166.194      34.902
  H     -200.038     165.857      33.269
  H     -199.705     164.506      34.391
  H     -209.292     170.033      40.847
  H     -208.177     169.840      39.515
  H     -207.837     170.998      40.779

 3  4  5  6  7  8  9  10  11  12  22  25  29  30  31  32 0
 6-311+G(2d,p)
 ****
 33  36  37 0
 6-311+G(2d,p)
 ****
 1  2  13  14  15  16  17  18  19  20  21  23  24  26 0
 3-21G
 ****
 27  28  34  35  38  39  40  41  42  43  44  45  46  47  48 0
 3-21G
 ****


