%nproc=1
%NoSave
%Mem=1900MB
#P OB98/GEN NMR

erre ene a

0 1
  C     -444.998    -642.893    -646.933
  O     -443.676    -642.442    -647.155
  H     -445.035    -643.965    -647.119
  H     -445.687    -642.394    -647.621
  H     -445.302    -642.702    -645.900
  P     -443.310    -640.915    -646.830
  C     -444.035    -641.304    -644.387
  O     -444.182    -640.497    -645.550
  C     -444.415    -640.500    -643.146
  O     -443.505    -639.384    -642.980
  C     -445.811    -639.895    -643.200
  O     -446.796    -640.882    -642.967
  C     -445.696    -638.824    -642.123
  O     -445.826    -639.397    -640.814
  C     -444.249    -638.319    -642.342
  N     -444.198    -637.090    -643.142
  C     -444.258    -635.894    -642.438
  O     -444.362    -635.836    -641.218
  N     -444.254    -634.758    -643.202
  C     -444.278    -634.702    -644.564
  O     -444.493    -633.675    -645.197
  C     -444.136    -635.992    -645.248
  C     -444.117    -637.108    -644.525
  O     -443.384    -639.970    -647.981
  O     -441.826    -641.002    -646.236
  H     -441.188    -640.746    -646.924
  H     -445.060    -639.997    -640.693
  H     -444.345    -633.886    -642.700
  H     -444.088    -635.988    -646.332
  H     -444.039    -638.078    -645.013
  H     -443.764    -638.116    -641.385
  H     -446.462    -638.056    -642.216
  H     -445.969    -639.398    -644.171
  H     -444.306    -641.153    -642.268
  H     -442.992    -641.625    -644.314
  H     -444.672    -642.189    -644.479
  P     -448.351    -640.573    -643.197
  C     -448.684    -641.569    -645.539
  O     -448.587    -640.377    -644.772
  O     -448.912    -639.485    -642.346
  O     -449.074    -641.969    -642.899
  H     -449.781    -641.826    -642.233
  H     -448.840    -641.319    -646.568
  H     -449.507    -642.155    -645.185
  H     -447.778    -642.131    -645.441

 6  7  8  9  10  11  12  13  14  15  16  27  31  32  33  34  35 0
 6-311+G(2d,p)
 ****
 36  37 0
 6-311+G(2d,p)
 ****
 1  2  3  4  5  17  18  19  20  21  22  23  24  25 0
 3-21G
 ****
 26  28  29  30  38  39  40  41  42  43  44  45 0
 3-21G
 ****


