%nproc=1
%NoSave
%Mem=1900MB
#P OB98/GEN NMR

erre ene a

0 1
  C      -45.976      74.249     -35.728
  O      -45.487      72.953     -36.028
  P      -46.285      72.113     -37.143
  C      -47.423      70.692     -35.269
  O      -47.581      71.517     -36.413
  C      -48.796      70.356     -34.684
  O      -49.466      71.557     -34.255
  C      -49.740      69.668     -35.662
  O      -49.460      68.283     -35.733
  C      -51.099      69.992     -35.050
  O      -51.400      69.094     -33.964
  C      -50.886      71.424     -34.538
  N      -54.866      73.896     -36.438
  C      -54.819      72.779     -35.623
  N      -56.008      72.279     -35.222
  N      -53.710      72.209     -35.235
  C      -52.598      72.809     -35.723
  C      -52.516      73.907     -36.550
  C      -53.749      74.558     -36.928
  O      -53.841      75.603     -37.565
  N      -51.216      74.211     -36.853
  C      -50.513      73.317     -36.186
  N      -51.303      72.457     -35.468
  O      -45.348      70.840     -37.376
  O      -46.578      72.854     -38.408
  H      -50.625      69.031     -33.377
  H      -44.795      70.959     -38.172
  H      -55.750      74.301     -36.690
  H      -49.435      73.265     -36.173
  H      -51.420      71.608     -33.598
  H      -51.912      69.889     -35.773
  H      -56.901      72.651     -35.500
  H      -49.665      70.129     -36.655
  H      -55.991      71.459     -34.627
  H      -48.638      69.728     -33.798
  H      -46.833      71.226     -34.519
  H      -46.892      69.779     -35.555
  P      -49.980      67.487     -37.024
  C      -52.179      66.493     -36.065
  O      -51.577      67.433     -36.936
  O      -49.527      65.978     -36.733
  O      -49.426      67.979     -38.319
  H      -49.267      65.548     -37.570
  H      -53.132      66.897     -35.719
  H      -51.547      66.279     -35.198
  H      -52.365      65.566     -36.612
  H      -45.360      74.697     -34.976
  H      -46.981      74.177     -35.369
  H      -45.955      74.851     -36.612

 3  4  5  6  7  8  9  10  11  12  23  26  30  31 0
 6-311+G(2d,p)
 ****
 33  35  36  37  38 0
 6-311+G(2d,p)
 ****
 1  2  13  14  15  16  17  18  19  20  21  22  24  25 0
 3-21G
 ****
 27  28  29  32  34  39  40  41  42  43  44  45  46  47  48  49 0
 3-21G
 ****


