%nproc=1
%NoSave
%Mem=1900MB
#P OB98/GEN NMR

erre ene a

0 1
  C      434.639    -555.676     282.869
  O      435.740    -555.407     282.028
  H      434.407    -554.770     283.436
  H      434.889    -556.480     283.574
  H      433.766    -555.959     282.271
  P      436.271    -556.621     281.119
  C      438.573    -555.452     281.391
  O      437.849    -556.679     281.413
  C      440.021    -555.686     281.804
  O      440.122    -555.818     283.229
  C      440.649    -556.932     281.201
  O      441.126    -556.669     279.898
  C      441.806    -557.159     282.171
  O      442.911    -556.294     281.834
  C      441.210    -556.742     283.529
  N      442.126    -559.860     287.511
  C      442.930    -559.003     286.832
  N      442.641    -558.241     285.749
  C      441.353    -558.435     285.382
  C      440.424    -559.279     285.965
  C      440.855    -560.000     287.080
  N      440.041    -560.883     287.769
  N      439.205    -559.197     285.312
  C      439.396    -558.282     284.370
  N      440.695    -557.815     284.348
  O      435.869    -556.580     279.681
  O      435.718    -557.881     281.944
  H      443.296    -556.650     280.999
  H      435.820    -557.732     282.904
  H      443.947    -558.917     287.201
  H      438.628    -557.909     283.702
  H      441.931    -556.194     284.132
  H      442.178    -558.182     282.147
  H      439.972    -557.796     281.235
  H      440.598    -554.776     281.520
  H      438.098    -554.732     282.062
  H      440.465    -561.500     288.425
  H      439.122    -561.080     287.376
  H      438.512    -555.057     280.368
  P      440.865    -557.697     278.691
  C      442.792    -556.567     277.418
  O      442.258    -557.789     277.900
  O      439.661    -557.379     277.854
  O      440.757    -559.123     279.409
  H      440.335    -559.769     278.814
  H      443.716    -556.756     276.912
  H      442.965    -555.905     278.240
  H      442.098    -556.118     276.738

 6  7  8  9  10  11  12  13  14  15  25  28  32  33  34  35 0
 6-311+G(2d,p)
 ****
 36  39  40 0
 6-311+G(2d,p)
 ****
 1  2  3  4  5  16  17  18  19  20  21  22  23  24 0
 3-21G
 ****
 26  27  29  30  31  37  38  41  42  43  44  45  46  47 0
 3-21G
 ****
 48 0
 3-21G
 ****


