%nproc=1
%NoSave
%Mem=1900MB
#P OB98/GEN NMR

erre ene a

0 1
  C      141.720     230.905    -202.999
  O      140.683     231.823    -202.719
  H      141.478     230.370    -203.923
  H      141.809     230.178    -202.186
  H      142.669     231.431    -203.134
  P      140.866     232.743    -201.418
  C      138.861     231.708    -200.124
  O      140.269     231.904    -200.186
  C      138.363     231.985    -198.708
  O      136.944     231.719    -198.636
  C      138.999     231.103    -197.638
  O      140.290     231.560    -197.274
  C      137.976     231.216    -196.515
  O      138.174     232.402    -195.736
  C      136.649     231.309    -197.282
  N      134.269     227.895    -194.337
  C      134.831     229.093    -194.059
  N      135.432     229.954    -194.909
  C      135.407     229.472    -196.164
  C      134.876     228.267    -196.596
  C      134.280     227.456    -195.617
  N      133.738     226.223    -195.893
  N      135.086     228.107    -197.952
  C      135.721     229.195    -198.332
  N      135.931     230.050    -197.287
  O      139.786     233.904    -201.646
  O      142.240     233.288    -201.211
  H      138.953     232.237    -195.168
  H      140.216     234.674    -202.064
  H      134.799     229.398    -193.015
  H      136.056     229.407    -199.342
  H      135.977     232.064    -196.856
  H      138.039     230.365    -195.833
  H      139.038     230.060    -197.978
  H      138.522     233.046    -198.483
  H      138.628     230.670    -200.392
  H      138.378     232.379    -200.841
  H      133.346     225.685    -195.137
  H      133.836     225.840    -196.824
  P      141.495     230.504    -197.243
  C      141.166     229.977    -194.717
  O      141.210     229.474    -196.044
  O      142.729     231.374    -196.713
  O      141.789     229.856    -198.555
  H      143.301     231.642    -197.460
  H      140.968     229.174    -194.038
  H      140.390     230.710    -194.639
  H      142.106     230.426    -194.474

 6  7  8  9  10  11  12  13  14  15  25  28  32  33  34  35 0
 6-311+G(2d,p)
 ****
 36  37  40 0
 6-311+G(2d,p)
 ****
 1  2  3  4  5  16  17  18  19  20  21  22  23  24 0
 3-21G
 ****
 26  27  29  30  31  38  39 41  42  43  44  45  46  47  48 0
 3-21G
 ****


