%nproc=1
%NoSave
%Mem=1900MB
#P OB98/GEN NMR

erre ene a

0 1
  C     1193.510    -253.502     725.509
  O     1193.821    -254.666     724.756
  P     1195.343    -254.827     724.228
  C     1196.451    -256.361     726.006
  O     1195.861    -256.263     724.706
  C     1196.864    -257.818     726.285
  O     1195.731    -258.691     726.292
  C     1197.803    -258.406     725.225
  O     1199.150    -258.018     725.432
  C     1197.648    -259.908     725.486
  O     1198.453    -260.286     726.616
  C     1196.142    -260.002     725.817
  N     1192.844    -263.454     724.125
  C     1193.291    -263.207     725.395
  N     1192.872    -264.060     726.385
  N     1194.132    -262.241     725.741
  C     1194.481    -261.479     724.674
  C     1194.072    -261.590     723.349
  C     1193.188    -262.681     723.020
  O     1192.788    -262.980     721.894
  N     1194.640    -260.625     722.575
  C     1195.370    -259.905     723.403
  N     1195.331    -260.419     724.685
  O     1196.165    -253.802     725.152
  O     1195.528    -254.519     722.772
  H     1198.245    -259.625     727.338
  H     1197.029    -253.615     724.744
  H     1192.208    -264.218     723.935
  H     1195.943    -259.053     723.116
  H     1195.977    -260.706     726.641
  H     1197.947    -260.519     724.632
  H     1192.303    -264.884     726.179
  H     1197.462    -258.173     724.201
  H     1193.257    -263.958     727.315
  H     1197.342    -257.858     727.263
  H     1195.713    -256.055     726.761
  H     1197.328    -255.714     726.054
  P     1200.163    -258.247     724.195
  C     1199.323    -256.227     722.718
  O     1200.366    -256.797     723.529
  O     1199.257    -259.037     723.124
  O     1201.402    -259.003     724.543
  H     1199.797    -259.585     722.533
  H     1199.525    -255.185     722.602
  H     1198.351    -256.357     723.202
  H     1199.311    -256.757     721.751
  H     1192.478    -253.525     725.792
  H     1193.698    -252.632     724.915
  H     1194.120    -253.472     726.388

 3  4  5  6  7  8  9  10  11  12  23  26  30  31 0
 6-311+G(2d,p)
 ****
 33  35  36  37  38 0
 6-311+G(2d,p)
 ****
 1  2  13  14  15  16  17  18  19  20  21  22  24  25 0
 3-21G
 ****
 27  28  29  32  34  39  40  41  42  43  44  45  46  47  48  49 0
 3-21G
 ****


