%nproc=1
%NoSave
%Mem=1900MB
#P OB98/GEN NMR

erre ene a

0 1
  C      -95.645     441.928    -386.814
  O      -94.486     441.164    -387.091
  H      -95.384     442.713    -386.105
  H      -96.409     441.290    -386.366
  H      -96.033     442.396    -387.723
  P      -94.514     440.130    -388.315
  C      -92.627     441.371    -389.555
  O      -93.971     440.932    -389.598
  C      -92.342     442.377    -390.685
  O      -93.298     443.470    -390.588
  C      -90.934     442.991    -390.631
  O      -90.539     443.273    -391.979
  C      -91.189     444.280    -389.871
  O      -90.136     445.203    -390.041
  C      -92.546     444.687    -390.458
  N      -93.241     445.674    -389.626
  C      -94.451     446.159    -390.121
  O      -94.913     445.829    -391.210
  N      -95.092     447.098    -389.346
  C      -94.613     447.613    -388.177
  O      -95.215     448.466    -387.537
  C      -93.316     447.095    -387.725
  C      -92.701     446.157    -388.459
  O      -95.807     439.407    -388.528
  O      -93.310     439.122    -388.004
  H      -89.334     444.888    -389.575
  H      -93.514     438.230    -388.373
  H      -95.961     447.452    -389.683
  H      -92.905     447.493    -386.800
  H      -91.741     445.756    -388.149
  H      -92.420     445.116    -391.454
  H      -91.281     444.088    -388.793
  H      -90.201     442.352    -390.143
  H      -92.516     441.882    -391.639
  H      -91.980     440.496    -389.671
  H      -92.416     441.842    -388.587
  P      -89.570     442.300    -392.809
  C      -91.289     441.420    -394.505
  O      -90.448     441.095    -393.406
  O      -88.353     441.857    -392.058
  O      -89.161     443.145    -394.107
  H      -88.289     442.851    -394.427
  H      -91.822     440.546    -394.817
  H      -90.692     441.782    -395.316
  H      -91.986     442.176    -394.209

 6  7  8  9  10  11  12  13  14  15  16  26  31  32  33  34  35 0
 6-311+G(2d,p)
 ****
 36  37 0
 6-311+G(2d,p)
 ****
 1  2  3  4  5  17  18  19  20  21  22  23  24  25 0
 3-21G
 ****
 27  28  29  30  38  39  40  41  42  43  44  45 0
 3-21G
 ****


