%nproc=1
%NoSave
%Mem=1900MB
#P OB98/GEN NMR

erre ene a

0 1
  C      161.846     -36.596     -10.889
  O      161.498     -37.921     -10.531
  P      160.433     -38.203      -9.371
  C      162.231     -39.393      -7.990
  O      161.246     -38.368      -7.995
  C      162.220     -40.166      -6.670
  O      162.439     -39.235      -5.575
  C      160.914     -40.917      -6.377
  O      161.272     -42.109      -5.668
  C      160.185     -39.967      -5.438
  O      159.184     -40.616      -4.663
  C      161.361     -39.426      -4.634
  N      160.998     -37.027      -0.132
  C      161.278     -38.310      -0.447
  N      161.330     -38.879      -1.668
  C      161.059     -37.974      -2.625
  C      160.723     -36.640      -2.456
  C      160.714     -36.159      -1.135
  N      160.466     -34.846      -0.796
  N      160.456     -36.051      -3.679
  C      160.625     -37.012      -4.564
  N      161.053     -38.173      -3.979
  O      159.458     -39.299      -9.652
  O      159.684     -36.799      -9.184
  H      159.565     -41.438      -4.295
  H      158.788     -36.848      -9.569
  H      161.495     -38.966       0.393
  H      160.454     -36.924      -5.627
  H      161.699     -40.133      -3.867
  H      159.700     -39.175      -6.021
  H      160.329     -41.157      -7.269
  H      163.070     -40.863      -6.675
  H      163.211     -38.923      -8.123
  H      160.617     -34.583       0.164
  H      160.517     -34.134      -1.523
  H      162.059     -40.078      -8.828
  P      160.649     -43.519      -6.110
  C      159.157     -43.819      -4.051
  O      159.191     -43.600      -5.452
  O      161.523     -44.705      -5.879
  O      160.330     -43.315      -7.669
  H      160.211     -44.184      -8.095
  H      159.301     -44.883      -3.846
  H      158.182     -43.512      -3.667
  H      159.936     -43.245      -3.544
  H      162.568     -36.618     -11.679
  H      162.261     -36.095     -10.040
  H      160.972     -36.074     -11.219

 3  4  5  6  7  8  9  10  11  12  22  25  29  30  31  32 0
 6-311+G(2d,p)
 ****
 33  36  37 0
 6-311+G(2d,p)
 ****
 1  2  13  14  15  16  17  18  19  20  21  23  24  26 0
 3-21G
 ****
 27  28  34  35  38  39  40  41  42  43  44  45  46  47  48 0
 3-21G
 ****


