%nproc=1
%NoSave
%Mem=1900MB
#P OB98/GEN NMR

erre ene a

0 1
  C       44.754    -219.884     226.847
  O       44.620    -220.589     225.628
  H       44.220    -220.431     227.629
  H       44.309    -218.888     226.752
  H       45.804    -219.795     227.137
  P       45.524    -220.155     224.379
  C       47.390    -221.935     224.278
  O       46.136    -221.506     223.763
  C       47.815    -223.257     223.635
  O       46.929    -224.314     224.118
  C       47.733    -223.261     222.093
  O       48.773    -224.127     221.614
  C       46.364    -223.878     221.875
  O       46.179    -224.284     220.544
  C       46.396    -224.970     222.948
  N       45.089    -225.558     223.219
  C       44.943    -226.924     222.986
  O       45.852    -227.653     222.593
  N       43.692    -227.434     223.216
  C       42.603    -226.730     223.637
  O       41.509    -227.244     223.848
  C       42.812    -225.284     223.836
  C       44.026    -224.775     223.622
  O       46.518    -219.074     224.641
  O       44.452    -219.715     223.274
  H       44.354    -218.743     223.281
  H       46.246    -223.516     219.938
  H       43.569    -228.422     223.054
  H       41.961    -224.695     224.150
  H       44.218    -223.714     223.756
  H       47.099    -225.764     222.675
  H       45.581    -223.145     222.089
  H       47.855    -222.266     221.657
  H       48.825    -223.512     223.977
  H       47.290    -222.062     225.361
  H       48.144    -221.163     224.078
  P       49.909    -223.651     220.584
  C       51.937    -222.626     221.806
  O       51.352    -223.807     221.278
  O       49.671    -222.291     220.011
  O       49.923    -224.755     219.423
  H       50.113    -224.321     218.566
  H       52.888    -222.861     222.237
  H       51.296    -222.216     222.558
  H       52.068    -221.911     221.021

 6  7  8  9  10  11  12  13  14  15  16  27  31  32  33  34  35 0
 6-311+G(2d,p)
 ****
 36  37 0
 6-311+G(2d,p)
 ****
 1  2  3  4  5  17  18  19  20  21  22  23  24  25 0
 3-21G
 ****
 26  28  29  30  38  39  40  41  42  43  44  45 0
 3-21G
 ****


