%nproc=1
%NoSave
%Mem=1900MB
#P OB98/GEN NMR

erre ene a

0 1
  C       36.259     144.388    -499.274
  O       37.555     144.270    -499.822
  H       36.346     144.664    -498.224
  H       35.733     143.432    -499.345
  H       35.695     145.164    -499.801
  P       37.668     143.889    -501.378
  C       38.147     141.652    -502.638
  O       37.786     142.282    -501.408
  C       38.063     140.125    -502.499
  O       39.260     139.646    -501.819
  C       36.846     139.649    -501.692
  O       36.272     138.514    -502.339
  C       37.424     139.268    -500.339
  O       36.635     138.281    -499.678
  C       38.845     138.823    -500.707
  N       39.772     138.952    -499.582
  C       40.468     137.786    -499.193
  O       40.271     136.732    -499.795
  N       41.314     137.852    -498.120
  C       41.417     138.956    -497.439
  N       42.253     138.944    -496.365
  C       40.675     140.185    -497.780
  C       39.887     140.119    -498.850
  O       39.139     144.389    -501.770
  O       36.588     144.442    -502.246
  H       36.493     137.538    -500.312
  H       39.264     144.416    -502.748
  H       40.780     141.074    -497.177
  H       39.301     140.972    -499.179
  H       38.863     137.772    -501.048
  H       37.468     140.147    -499.694
  H       36.084     140.425    -501.584
  H       38.073     139.688    -503.504
  H       42.735     138.087    -496.155
  H       39.164     141.951    -502.902
  H       42.390     139.741    -495.756
  H       37.459     141.987    -503.424
  P       34.730     138.668    -502.772
  C       32.500     137.432    -502.290
  O       33.908     137.480    -502.072
  O       34.739     138.267    -504.330
  O       34.179     140.033    -502.535
  H       34.743     139.082    -504.886
  H       32.086     136.595    -501.767
  H       32.304     137.331    -503.337
  H       32.052     138.334    -501.929

 6  7  8  9  10  11  12  13  14  15  16  26  30  31  32  33  35 0
 6-311+G(2d,p)
 ****
 37  38 0
 6-311+G(2d,p)
 ****
 1  2  3  4  5  17  18  19  20  21  22  23  24  25 0
 3-21G
 ****
 27  28  29  34  36  39  40  41  42  43  44  45  46 0
 3-21G
 ****


