%nproc=1
%NoSave
%Mem=1900MB
#P OB98/GEN NMR

erre ene a

0 1
  C     -126.725     219.987     250.361
  O     -126.537     221.397     250.215
  P     -125.107     221.950     249.737
  C     -124.658     221.483     247.248
  O     -125.209     222.391     248.195
  C     -124.987     221.873     245.803
  O     -126.386     221.613     245.498
  C     -124.719     223.347     245.465
  O     -124.260     223.395     244.108
  C     -126.102     223.965     245.585
  O     -126.197     225.224     244.932
  C     -126.957     222.837     245.000
  N     -128.364     222.960     245.352
  C     -129.124     223.890     244.642
  O     -128.579     224.642     243.829
  N     -130.474     223.971     244.893
  C     -130.983     223.290     245.871
  N     -132.326     223.379     246.080
  C     -130.176     222.432     246.763
  C     -128.893     222.295     246.434
  O     -123.942     221.073     250.064
  O     -124.997     223.359     250.499
  H     -127.141     225.481     244.867
  H     -124.060     223.514     250.740
  H     -130.628     221.948     247.614
  H     -128.220     221.689     247.017
  H     -126.874     222.816     243.901
  H     -126.342     224.119     246.646
  H     -123.969     223.812     246.116
  H     -124.390     221.235     245.133
  H     -132.863     223.988     245.475
  H     -125.047     220.475     247.444
  H     -132.806     222.836     246.788
  H     -123.572     221.421     247.400
  P     -122.734     223.808     243.818
  C     -121.562     221.486     243.786
  O     -122.034     222.589     243.043
  O     -122.083     223.685     245.284
  O     -122.514     225.182     243.267
  H     -121.293     224.269     245.328
  H     -121.381     220.652     243.100
  H     -122.290     221.163     244.536
  H     -120.616     221.745     244.280
  H     -127.726     219.792     250.684
  H     -126.036     219.609     251.087
  H     -126.553     219.505     249.421

 3  4  5  6  7  8  9  10  11  12  13  23  27  28  29  30  32 0
 6-311+G(2d,p)
 ****
 34  35 0
 6-311+G(2d,p)
 ****
 1  2  14  15  16  17  18  19  20  21  22  24  25  26 0
 3-21G
 ****
 31  33  36  37  38  39  40  41  42  43  44  45  46 0
 3-21G
 ****


