%nproc=1
%NoSave
%Mem=1900MB
#P OB98/GEN NMR

erre ene a

0 1
  C     -422.528     279.418      98.369
  O     -423.430     280.374      97.848
  H     -422.995     278.859      99.185
  H     -422.256     278.721      97.572
  H     -421.623     279.915      98.729
  P     -424.033     281.429      98.897
  C     -422.247     283.214      98.313
  O     -422.821     282.393      99.318
  C     -422.856     284.611      98.364
  O     -422.728     285.161      99.694
  C     -422.194     285.631      97.446
  O     -422.623     285.488      96.098
  C     -422.692     286.929      98.063
  O     -424.034     287.197      97.607
  C     -422.702     286.605      99.561
  N     -420.453     290.781     101.533
  C     -421.619     290.612     100.872
  N     -422.149     289.478     100.369
  C     -421.347     288.428     100.617
  C     -420.132     288.446     101.277
  C     -419.680     289.689     101.743
  N     -418.479     289.853     102.403
  N     -419.603     287.176     101.355
  C     -420.481     286.402     100.751
  N     -421.552     287.115     100.282
  O     -424.281     280.548     100.213
  O     -425.281     282.120      98.459
  H     -423.990     287.245      96.634
  H     -425.084     280.869     100.659
  H     -422.213     291.514     100.734
  H     -420.386     285.330     100.637
  H     -423.607     286.987     100.049
  H     -422.079     287.794      97.795
  H     -421.101     285.586      97.527
  H     -423.927     284.521      98.140
  H     -422.443     282.773      97.329
  H     -418.305     290.720     102.880
  H     -417.908     289.028     102.558
  H     -421.165     283.263      98.471
  P     -421.489     285.453      94.961
  C     -421.467     282.867      94.751
  O     -420.753     284.040      95.129
  O     -420.403     286.502      95.500
  O     -421.955     285.796      93.587
  H     -419.890     286.860      94.751
  H     -420.853     282.007      94.918
  H     -421.725     282.925      93.714
  H     -422.359     282.788      95.337

 6  7  8  9  10  11  12  13  14  15  25  28  32  33  34  35 0
 6-311+G(2d,p)
 ****
 36  39  40 0
 6-311+G(2d,p)
 ****
 1  2  3  4  5  16  17  18  19  20  21  22  23  24 0
 3-21G
 ****
 26  27  29  30  31  37  38  41  42  43  44  45  46  47  48 0
 3-21G
 ****


