%nproc=1
%NoSave
%Mem=1900MB
#P OB98/GEN NMR

erre ene a

0 1
  C     -239.072     486.320    -166.454
  O     -239.690     485.079    -166.095
  P     -238.810     483.848    -165.558
  C     -237.715     482.889    -167.667
  O     -237.516     483.686    -166.502
  C     -236.408     482.578    -168.415
  O     -235.478     481.853    -167.570
  C     -236.583     481.752    -169.695
  O     -235.568     482.205    -170.595
  C     -236.292     480.342    -169.217
  O     -235.976     479.457    -170.282
  C     -235.162     480.605    -168.214
  N     -235.013     479.518    -167.249
  C     -233.995     478.592    -167.491
  O     -233.306     478.677    -168.510
  N     -233.809     477.566    -166.599
  C     -234.633     477.419    -165.610
  N     -234.417     476.368    -164.775
  C     -235.777     478.324    -165.364
  C     -235.891     479.344    -166.206
  O     -239.572     482.587    -165.330
  O     -238.191     484.396    -164.182
  H     -235.906     478.542    -169.915
  H     -238.057     483.645    -163.574
  H     -236.458     478.150    -164.541
  H     -236.697     480.070    -166.113
  H     -234.204     480.739    -168.738
  H     -237.171     479.941    -168.699
  H     -237.575     481.851    -170.149
  H     -235.932     483.539    -168.653
  H     -233.639     475.755    -164.992
  H     -238.391     483.424    -168.340
  H     -235.060     476.094    -164.047
  H     -238.205     481.957    -167.377
  P     -235.889     483.194    -171.814
  C     -236.591     481.425    -173.537
  O     -237.021     482.485    -172.699
  O     -234.691     483.651    -172.589
  O     -236.656     484.436    -171.150
  H     -236.633     485.191    -171.768
  H     -237.460     480.894    -173.915
  H     -235.959     480.720    -172.976
  H     -236.021     481.828    -174.376
  H     -239.821     487.009    -166.785
  H     -238.367     486.153    -167.242
  H     -238.566     486.726    -165.603

 3  4  5  6  7  8  9  10  11  12  13  23  27  28  29  30  32 0
 6-311+G(2d,p)
 ****
 34  35 0
 6-311+G(2d,p)
 ****
 1  2  14  15  16  17  18  19  20  21  22  24  25  26 0
 3-21G
 ****
 31  33  36  37  38  39  40  41  42  43  44  45  46 0
 3-21G
 ****


