%nproc=1
%NoSave
%Mem=1900MB
#P OB98/GEN NMR

erre ene a

0 1
  C     1508.932    1068.589     552.588
  O     1508.853    1069.978     552.833
  H     1508.572    1068.388     551.572
  H     1508.312    1068.051     553.296
  H     1509.972    1068.243     552.668
  P     1509.550    1070.539     554.163
  C     1511.456    1071.159     552.507
  O     1511.099    1070.736     553.819
  C     1512.973    1071.362     552.421
  O     1513.328    1072.512     553.246
  C     1513.795    1070.169     552.924
  O     1514.973    1070.086     552.113
  C     1514.205    1070.588     554.325
  O     1515.350    1069.949     554.815
  C     1514.378    1072.095     554.134
  N     1514.336    1072.833     555.389
  C     1515.554    1073.103     556.024
  O     1516.648    1072.851     555.551
  N     1515.463    1073.703     557.255
  C     1514.301    1074.027     557.914
  O     1514.293    1074.555     559.026
  C     1513.052    1073.716     557.188
  C     1513.133    1073.137     555.988
  O     1509.538    1069.258     555.135
  O     1508.894    1071.734     554.772
  H     1508.711    1069.247     555.656
  H     1515.151    1068.985     554.916
  H     1516.327    1073.911     557.717
  H     1512.118    1073.947     557.694
  H     1512.225    1072.881     555.450
  H     1515.331    1072.310     553.625
  H     1513.366    1070.399     555.017
  H     1513.267    1069.218     552.922
  H     1513.233    1071.628     551.381
  H     1510.960    1072.095     552.282
  H     1511.134    1070.385     551.796
  P     1515.109    1068.772     551.186
  C     1513.884    1069.922     549.172
  O     1513.898    1068.873     550.127
  O     1514.667    1067.617     552.185
  O     1516.471    1068.601     550.597
  H     1513.976    1067.901     552.810
  H     1513.013    1069.832     548.557
  H     1514.760    1069.860     548.561
  H     1513.868    1070.865     549.678

 6  7  8  9  10  11  12  13  14  15  16  27  31  32  33  34  35 0
 6-311+G(2d,p)
 ****
 36  37 0
 6-311+G(2d,p)
 ****
 1  2  3  4  5  17  18  19  20  21  22  23  24  25 0
 3-21G
 ****
 26  28  29  30  38  39  40  41  42  43  44  45 0
 3-21G
 ****


