%nproc=1
%NoSave
%Mem=1900MB
#P OB98/GEN NMR

erre ene a

0 1
  C     -336.657     -87.399     112.993
  O     -335.436     -87.021     112.354
  P     -334.096     -87.111     113.242
  C     -332.704     -88.704     111.726
  O     -333.415     -88.531     112.943
  C     -333.320     -89.830     110.896
  O     -334.654     -89.503     110.485
  C     -332.567     -90.133     109.610
  O     -331.418     -90.937     109.842
  C     -333.617     -90.920     108.834
  O     -333.614     -92.294     109.257
  C     -334.924     -90.227     109.258
  N     -338.445     -89.393     105.707
  C     -338.250     -90.494     106.521
  N     -339.139     -91.504     106.383
  N     -337.280     -90.592     107.386
  C     -336.486     -89.495     107.430
  C     -336.576     -88.346     106.682
  C     -337.641     -88.262     105.705
  O     -337.836     -87.325     104.939
  N     -335.597     -87.448     107.023
  C     -334.936     -88.039     107.997
  N     -335.425     -89.292     108.274
  O     -334.668     -87.282     114.730
  O     -333.209     -85.921     113.119
  H     -332.741     -92.664     109.021
  H     -334.025     -86.932     115.376
  H     -339.205     -89.371     105.053
  H     -334.103     -87.604     108.533
  H     -335.717     -90.955     109.474
  H     -333.438     -90.914     107.748
  H     -339.950     -91.466     105.789
  H     -332.319     -89.211     109.068
  H     -339.030     -92.304     106.999
  H     -333.355     -90.733     111.526
  H     -331.658     -88.929     111.933
  H     -332.720     -87.756     111.170
  P     -329.988     -90.227     109.674
  C     -328.930     -90.596     112.019
  O     -329.593     -89.710     111.139
  O     -330.332     -88.892     108.869
  O     -328.966     -91.058     108.977
  H     -329.568     -88.614     108.331
  H     -328.149     -91.156     111.501
  H     -329.657     -91.290     112.454
  H     -328.468     -90.019     112.823
  H     -337.468     -87.296     112.302
  H     -336.827     -86.767     113.840
  H     -336.590     -88.417     113.315

 3  4  5  6  7  8  9  10  11  12  23  26  30  31  33  0
 6-311+G(2d,p)
 ****
 35  36  37  38 0
 6-311+G(2d,p)
 ****
 1  2  13  14  15  16  17  18  19  20  21  22  24  25  27  28  29 0
 3-21G
 ****
 32  34  39  40  41  42  43  44  45  46  47  48  49 0
 3-21G
 ****


