%nproc=1
%NoSave
%Mem=1900MB
#P OB98/GEN NMR

erre ene a

0 1
  C     -101.186     448.746    -413.685
  O     -101.401     447.352    -413.571
  H     -101.232     449.056    -414.734
  H     -101.972     449.268    -413.131
  H     -100.218     449.010    -413.264
  P     -100.414     446.409    -414.413
  C      -99.067     445.643    -412.334
  O      -99.043     446.336    -413.577
  C      -98.379     444.287    -412.470
  O      -97.046     444.463    -413.018
  C      -98.163     443.550    -411.155
  O      -99.346     442.901    -410.710
  C      -97.089     442.542    -411.563
  O      -97.708     441.431    -412.242
  C      -96.240     443.350    -412.560
  N      -91.113     442.981    -412.409
  C      -92.040     442.296    -413.104
  N      -93.390     442.434    -413.096
  C      -93.750     443.427    -412.258
  C      -92.907     444.210    -411.485
  C      -91.535     443.963    -411.574
  N      -90.583     444.660    -410.853
  N      -93.636     445.136    -410.760
  C      -94.898     444.911    -411.083
  N      -95.018     443.881    -411.981
  O     -100.018     447.312    -415.677
  O     -100.975     445.094    -414.831
  H      -98.432     441.119    -411.664
  H      -99.924     446.732    -416.460
  H      -91.659     441.528    -413.775
  H      -95.747     445.464    -410.696
  H      -95.972     442.755    -413.437
  H      -96.531     442.145    -410.721
  H      -97.749     444.218    -410.383
  H      -98.956     443.675    -413.167
  H     -100.107     445.485    -412.025
  H      -89.620     444.564    -411.105
  H      -90.911     445.395    -410.228
  H      -98.554     446.253    -411.581
  P      -99.525     442.679    -409.124
  C     -101.025     444.780    -408.749
  O      -99.765     444.150    -408.514
  O      -98.035     442.322    -408.639
  O     -100.500     441.640    -408.727
  H      -98.073     441.804    -407.815
  H     -101.034     445.744    -408.285
  H     -101.807     444.178    -408.335
  H     -101.178     444.889    -409.802

 6  7  8  9  10  11  12  13  14  15  25  28  32  33  34  35 0
 6-311+G(2d,p)
 ****
 36  39  40 0
 6-311+G(2d,p)
 ****
 1  2  3  4  5  16  17  18  19  20  21  22  23  24 0
 3-21G
 ****
 26  27  29  30  31  37  38  41  42  43  44  45  46  47  48 0
 3-21G
 ****


