%nproc=1
%NoSave
%Mem=1900MB
#P OB98/GEN NMR

erre ene a

0 1
  C     -606.301     409.803    -567.779
  O     -606.802     409.465    -566.479
  P     -607.950     410.410    -565.885
  C     -606.327     411.982    -564.599
  O     -607.401     411.058    -564.517
  C     -605.903     412.423    -563.196
  O     -606.935     413.234    -562.565
  C     -605.659     411.265    -562.239
  O     -604.422     410.639    -562.514
  C     -605.714     411.991    -560.898
  O     -604.472     412.671    -560.633
  C     -606.828     413.027    -561.141
  N     -610.337     413.893    -557.509
  C     -609.142     414.475    -557.769
  N     -608.269     414.178    -558.754
  C     -608.737     413.190    -559.532
  C     -609.934     412.508    -559.391
  C     -610.758     412.892    -558.319
  N     -611.965     412.282    -558.043
  N     -610.065     411.542    -560.372
  C     -608.951     411.633    -561.078
  N     -608.119     412.618    -560.619
  O     -609.071     409.376    -565.392
  O     -608.499     411.382    -566.872
  H     -603.765     411.995    -560.642
  H     -609.839     409.406    -565.986
  H     -608.850     415.273    -557.100
  H     -608.704     411.007    -561.936
  H     -606.599     414.002    -560.688
  H     -605.908     411.325    -560.053
  H     -606.473     410.541    -562.307
  H     -604.997     413.042    -563.288
  H     -606.615     412.850    -565.199
  H     -612.456     412.571    -557.214
  H     -612.240     411.485    -558.598
  H     -605.486     411.501    -565.127
  P     -604.417     409.411    -563.543
  C     -604.311     407.812    -561.531
  O     -603.685     408.233    -562.731
  O     -603.306     409.862    -564.592
  O     -605.763     409.063    -564.111
  H     -602.510     410.212    -564.152
  H     -603.728     406.989    -561.102
  H     -605.326     407.453    -561.740
  H     -604.350     408.639    -560.813
  H     -605.544     409.102    -568.063
  H     -605.884     410.788    -567.756
  H     -607.101     409.771    -568.489

 3  4  5  6  7  8  9  10  11  12  22  25  29  30  31  32 0
 6-311+G(2d,p)
 ****
 33  36  37 0
 6-311+G(2d,p)
 ****
 1  2  13  14  15  16  17  18  19  20  21  23  24  26 0
 3-21G
 ****
 27  28  34  35  38  39  40  41  42  43  44  45  46  47  48 0
 3-21G
 ****


