%nproc=1
%NoSave
%Mem=1900MB
#P OB98/GEN NMR

erre ene a

0 1
  C      544.031     -18.775     -66.307
  O      545.100     -19.676     -66.100
  H      543.112     -19.232     -65.935
  H      543.912     -18.574     -67.375
  H      544.201     -17.839     -65.769
  P      546.599     -19.179     -66.392
  C      546.766     -20.530     -68.588
  O      546.808     -19.246     -67.979
  C      547.666     -20.572     -69.828
  O      547.039     -19.776     -70.883
  C      549.081     -19.992     -69.609
  O      549.963     -20.695     -70.500
  C      548.873     -18.556     -70.050
  O      550.082     -17.859     -70.204
  C      548.016     -18.796     -71.302
  N      547.359     -17.616     -71.846
  C      548.167     -16.626     -72.401
  O      549.395     -16.677     -72.463
  N      547.508     -15.530     -72.893
  C      546.153     -15.339     -72.898
  O      545.624     -14.344     -73.383
  C      545.357     -16.416     -72.293
  C      545.984     -17.487     -71.807
  O      547.668     -19.836     -65.583
  O      546.534     -17.602     -66.112
  H      546.918     -17.409     -65.236
  H      549.903     -17.009     -70.665
  H      548.076     -14.805     -73.301
  H      544.282     -16.289     -72.271
  H      545.421     -18.308     -71.364
  H      548.622     -19.266     -72.082
  H      548.310     -18.011     -69.288
  H      549.434     -20.110     -68.582
  H      547.714     -21.604     -70.196
  H      545.731     -20.741     -68.872
  H      547.096     -21.282     -67.861
  P      551.103     -21.708     -70.004
  C      552.572     -19.644     -69.465
  O      552.089     -20.907     -69.022
  O      551.809     -22.416     -71.114
  O      550.353     -22.745     -69.036
  H      550.837     -23.593     -69.031
  H      553.213     -19.225     -68.718
  H      551.746     -18.986     -69.635
  H      553.120     -19.771     -70.375

 6  7  8  9  10  11  12  13  14  15  16  27  31  32  33  34  35 0
 6-311+G(2d,p)
 ****
 36  37 0
 6-311+G(2d,p)
 ****
 1  2  3  4  5  17  18  19  20  21  22  23  24  25 0
 3-21G
 ****
 26  28  29  30  38  39  40  41  42  43  44  45 0
 3-21G
 ****


