%nproc=1
%NoSave
%Mem=1900MB
#P OB98/GEN NMR

erre ene a

0 1
  C     -447.668    -445.920    -286.167
  O     -447.680    -445.427    -284.823
  P     -448.318    -446.374    -283.694
  C     -446.416    -446.782    -281.961
  O     -447.149    -447.279    -283.075
  C     -445.002    -446.376    -282.396
  O     -445.042    -445.318    -283.371
  C     -444.159    -445.838    -281.256
  O     -443.668    -446.897    -280.458
  C     -443.068    -445.075    -282.001
  O     -441.940    -445.917    -282.303
  C     -443.779    -444.632    -283.301
  N     -443.958    -443.193    -283.382
  C     -443.027    -442.503    -284.167
  O     -442.118    -443.117    -284.729
  N     -443.146    -441.145    -284.280
  C     -444.090    -440.521    -283.641
  N     -444.145    -439.169    -283.787
  C     -445.069    -441.204    -282.779
  C     -444.946    -442.529    -282.692
  O     -449.184    -447.421    -284.542
  O     -449.154    -445.647    -282.693
  H     -441.388    -445.408    -282.932
  H     -449.972    -447.689    -284.040
  H     -445.830    -440.644    -282.257
  H     -445.622    -443.116    -282.075
  H     -443.202    -444.952    -284.178
  H     -442.687    -444.240    -281.407
  H     -444.748    -445.141    -280.648
  H     -444.514    -447.255    -282.845
  H     -443.458    -438.730    -284.383
  H     -446.362    -447.535    -281.177
  H     -444.835    -438.588    -283.329
  H     -446.954    -445.926    -281.538
  P     -444.189    -446.997    -278.947
  C     -444.335    -449.550    -278.770
  O     -445.060    -448.343    -278.889
  O     -445.334    -445.864    -278.912
  O     -443.188    -446.804    -277.858
  H     -445.670    -445.759    -278.006
  H     -445.034    -450.357    -278.534
  H     -443.601    -449.482    -277.968
  H     -443.840    -449.787    -279.716
  H     -447.218    -445.193    -286.810
  H     -448.672    -446.107    -286.487
  H     -447.105    -446.829    -286.208

 3  4  5  6  7  8  9  10  11  12  13  21  23  27  28  29  30  32 0
 6-311+G(2d,p)
 ****
 34  35 0
 6-311+G(2d,p)
 ****
 1  2  14  15  16  17  18  19  20  22  24  25  26 0
 3-21G
 ****
 31  33  36  37  38  39  40  41  42  43  44  45  46 0
 3-21G
 ****


