%nproc=1
%NoSave
%Mem=1900MB
#P OB98/GEN NMR

erre ene a

0 1
  C      624.327    -106.889     411.954
  O      625.523    -106.296     412.422
  H      624.583    -107.704     411.282
  H      623.720    -106.158     411.403
  H      623.748    -107.296     412.794
  P      625.419    -105.008     413.378
  C      627.169    -105.706     415.161
  O      626.857    -104.848     414.067
  C      628.203    -105.060     416.078
  O      629.521    -105.128     415.479
  C      627.957    -103.575     416.353
  O      626.892    -103.415     417.275
  C      629.331    -103.150     416.860
  O      629.521    -103.547     418.219
  C      630.263    -103.956     415.911
  N      630.724    -103.193     414.769
  C      631.696    -102.204     415.025
  O      632.071    -102.014     416.188
  N      632.167    -101.448     413.976
  C      631.753    -101.682     412.770
  N      632.271    -100.907     411.776
  C      630.775    -102.738     412.446
  C      630.296    -103.435     413.463
  O      624.267    -104.986     414.333
  O      625.360    -103.778     412.358
  H      630.493    -103.510     418.384
  H      624.435    -103.532     412.170
  H      630.457    -102.906     411.400
  H      629.566    -104.230     413.314
  H      631.138    -104.312     416.458
  H      629.464    -102.067     416.815
  H      627.738    -103.041     415.424
  H      628.235    -105.636     417.008
  H      632.948    -100.212     412.048
  H      627.569    -106.636     414.735
  H      632.156    -101.095     410.790
  H      626.264    -105.949     415.727
  P      626.035    -102.067     417.340
  C      624.026    -103.538     416.690
  O      624.502    -102.535     417.569
  O      626.237    -101.123     416.212
  O      626.407    -101.446     418.784
  H      627.308    -101.015     418.733
  H      623.009    -103.769     416.930
  H      624.626    -104.418     416.794
  H      624.083    -103.185     415.682

 6  7  8  9  10  11  12  13  14  15  16  26  30  31  32  33  35 0
 6-311+G(2d,p)
 ****
 37  38 0
 6-311+G(2d,p)
 ****
 1  2  3  4  5  17  18  19  20  21  22  23  24  25 0
 3-21G
 ****
 27  28  29  34  36  39  40  41  42  43  44  45  46 0
 3-21G
 ****


