%nproc=1
%NoSave
%Mem=1900MB
#P OB98/GEN NMR

erre ene a

0 1
  C      259.615    -285.519     253.730
  O      260.709    -285.027     252.946
  P      260.676    -285.282     251.366
  C      262.709    -286.902     251.417
  O      261.347    -286.710     251.075
  C      263.062    -288.392     251.376
  O      262.391    -289.132     252.420
  C      262.677    -289.076     250.069
  O      263.656    -288.874     249.058
  C      262.668    -290.536     250.493
  O      264.015    -291.045     250.522
  C      262.094    -290.456     251.913
  N      258.490    -293.967     252.448
  C      259.866    -294.091     252.469
  N      260.353    -295.337     252.667
  N      260.689    -293.091     252.307
  C      260.061    -291.903     252.137
  C      258.709    -291.651     252.097
  C      257.809    -292.768     252.260
  O      256.581    -292.721     252.240
  N      258.456    -290.319     251.898
  C      259.650    -289.761     251.835
  N      260.659    -290.684     251.960
  O      261.781    -284.257     250.818
  O      259.345    -285.048     250.731
  H      264.319    -291.083     249.593
  H      261.566    -283.996     249.903
  H      257.902    -294.772     252.574
  H      259.833    -288.703     251.705
  H      262.557    -291.182     252.591
  H      262.105    -291.168     249.800
  H      259.778    -296.144     252.848
  H      261.676    -288.769     249.742
  H      261.360    -295.445     252.717
  H      264.148    -288.492     251.523
  H      262.916    -286.502     252.415
  H      263.334    -286.323     250.731
  P      263.440    -287.650     248.041
  C      264.704    -288.393     245.898
  O      263.467    -288.289     246.572
  O      264.826    -286.856     248.146
  O      262.276    -286.777     248.354
  H      264.675    -285.902     248.001
  H      264.558    -288.990     244.995
  H      265.448    -288.884     246.527
  H      265.059    -287.399     245.608
  H      259.776    -285.275     254.759
  H      259.548    -286.581     253.621
  H      258.705    -285.068     253.395

 3  4  5  6  7  8  9  10  11  12  23  26  30  31 0
 6-311+G(2d,p)
 ****
 33  35  36  37  38 0
 6-311+G(2d,p)
 ****
 1  2  13  14  15  16  17  18  19  20  21  22  24  25 0
 3-21G
 ****
 27  28  29  32  34  39  40  41  42  43  44  45  46  47  48  49 0
 3-21G
 ****


