%nproc=1
%NoSave
%Mem=1900MB
#P OB98/GEN NMR

erre ene a

0 1
  C      237.423    -225.474     157.331
  O      237.081    -226.696     156.705
  H      238.509    -225.346     157.281
  H      237.120    -225.495     158.380
  H      236.943    -224.636     156.819
  P      235.521    -227.001     156.516
  C      235.357    -226.202     154.020
  O      234.977    -226.006     155.376
  C      234.110    -226.328     153.144
  O      233.225    -227.351     153.640
  C      233.245    -225.078     153.120
  O      233.835    -224.020     152.399
  C      231.980    -225.634     152.484
  O      232.123    -225.750     151.062
  C      231.897    -227.033     153.142
  N      230.896    -227.093     154.199
  C      229.629    -226.596     153.868
  O      229.412    -226.153     152.739
  N      228.652    -226.587     154.833
  C      228.909    -227.057     156.015
  N      227.902    -227.010     156.927
  C      230.220    -227.613     156.397
  C      231.160    -227.596     155.451
  O      234.881    -226.393     157.849
  O      235.178    -228.431     156.260
  H      232.950    -226.247     150.908
  H      235.125    -225.466     158.012
  H      230.385    -228.002     157.390
  H      232.149    -227.984     155.650
  H      231.649    -227.797     152.395
  H      231.115    -224.992     152.664
  H      232.999    -224.769     154.144
  H      234.435    -226.613     152.133
  H      227.022    -226.602     156.635
  H      235.992    -227.085     153.915
  H      227.994    -227.315     157.885
  H      235.947    -225.332     153.712
  P      233.316    -222.515     152.591
  C      235.224    -222.270     154.300
  O      233.847    -222.038     154.029
  O      231.853    -222.313     152.371
  O      234.247    -221.678     151.593
  H      235.200    -221.733     151.780
  H      235.460    -221.913     155.281
  H      235.822    -221.753     153.579
  H      235.427    -223.319     154.244

 6  7  8  9  10  11  12  13  14  15  16  26  30  31  32  33  35 0
 6-311+G(2d,p)
 ****
 37  38 0
 6-311+G(2d,p)
 ****
 1  2  3  4  5  17  18  19  20  21  22  23  24  25 0
 3-21G
 ****
 27  28  29  34  36  39  40  41  42  43  44  45  46 0
 3-21G
 ****


