%nproc=1
%NoSave
%Mem=1900MB
#P OB98/GEN NMR

erre ene a

0 1
  C     -262.983     173.022    -172.281
  O     -262.249     174.202    -172.549
  H     -263.740     172.860    -173.063
  H     -262.301     172.168    -172.273
  H     -263.478     173.102    -171.301
  P     -263.099     175.551    -172.711
  C     -265.162     176.191    -174.151
  O     -264.031     175.343    -174.011
  C     -265.454     176.447    -175.614
  O     -265.624     175.194    -176.330
  C     -266.724     177.235    -175.899
  O     -266.543     178.627    -175.689
  C     -266.941     176.918    -177.363
  O     -266.098     177.751    -178.176
  C     -266.484     175.455    -177.469
  N     -270.479     173.552    -180.087
  C     -269.579     174.527    -180.378
  N     -268.556     174.989    -179.628
  C     -268.480     174.323    -178.472
  C     -269.326     173.319    -178.009
  C     -270.371     172.934    -178.885
  N     -271.293     171.958    -178.552
  N     -268.942     172.872    -176.771
  C     -267.881     173.587    -176.471
  N     -267.569     174.500    -177.458
  O     -262.007     176.621    -173.199
  O     -263.809     176.010    -171.482
  H     -266.259     178.680    -177.900
  H     -262.228     177.489    -172.819
  H     -269.707     174.993    -181.344
  H     -267.309     173.493    -175.551
  H     -265.876     175.283    -178.362
  H     -267.969     177.075    -177.698
  H     -267.564     176.838    -175.311
  H     -264.578     176.960    -176.062
  H     -264.971     177.151    -173.657
  H     -271.882     171.596    -179.289
  H     -271.200     171.488    -177.657
  H     -266.027     175.705    -173.668
  P     -267.841     179.578    -175.815
  C     -269.731     179.832    -177.574
  O     -268.493     179.214    -177.242
  O     -267.210     181.023    -176.050
  O     -268.770     179.547    -174.633
  H     -267.838     181.712    -175.755
  H     -270.046     179.503    -178.542
  H     -269.608     180.895    -177.581
  H     -270.470     179.563    -176.848

 6  7  8  9  10  11  12  13  14  15  25  28  32  33  34  35 0
 6-311+G(2d,p)
 ****
 36  39  40 0
 6-311+G(2d,p)
 ****
 1  2  3  4  5  16  17  18  19  20  21  22  23  24 0
 3-21G
 ****
 26  27  29  30  31  37  38  41  42  43  44  45  46  47  48 0
 3-21G
 ****


