%nproc=1
%NoSave
%Mem=1900MB
#P OB98/GEN NMR

erre ene a

0 1
  C      -42.031      44.617       0.418
  O      -42.165      43.506       1.289
  P      -43.572      42.731       1.290
  C      -44.580      44.309       3.090
  O      -44.676      43.794       1.767
  C      -45.945      44.320       3.783
  O      -45.783      44.817       5.133
  C      -46.994      45.185       3.081
  O      -48.257      44.527       3.202
  C      -47.018      46.453       3.913
  O      -48.261      47.141       3.789
  C      -46.720      45.899       5.315
  N      -46.188      46.921       6.211
  C      -46.851      47.099       7.430
  O      -47.878      46.465       7.671
  N      -46.364      48.025       8.319
  C      -45.369      48.782       7.976
  N      -44.922      49.681       8.893
  C      -44.721      48.712       6.652
  C      -45.163      47.755       5.837
  O      -43.438      41.750       2.546
  O      -43.878      41.997       0.026
  H      -48.273      47.871       4.450
  H      -43.931      40.920       2.393
  H      -43.919      49.393       6.402
  H      -44.731      47.614       4.855
  H      -47.628      45.478       5.765
  H      -46.216      47.129       3.588
  H      -46.765      45.357       2.025
  H      -46.297      43.283       3.858
  H      -45.391      49.721       9.788
  H      -44.212      45.338       3.047
  H      -44.153      50.314       8.714
  H      -43.861      43.713       3.661
  P      -48.785      43.694       1.938
  C      -50.414      45.585       1.339
  O      -49.320      44.798       0.907
  O      -50.160      43.092       2.506
  O      -47.914      42.615       1.385
  H      -50.560      42.502       1.842
  H      -50.585      46.378       0.606
  H      -50.200      46.040       2.308
  H      -51.315      44.967       1.404
  H      -41.051      45.034       0.520
  H      -42.762      45.357       0.669
  H      -42.179      44.298      -0.593

 3  4  5  6  7  8  9  10  11  12  13  21  23  27  28  29  30  32 0
 6-311+G(2d,p)
 ****
 34  35 0
 6-311+G(2d,p)
 ****
 1  2  14  15  16  17  18  19  20  22  24  25  26 0
 3-21G
 ****
 31  33  36  37  38  39  40  41  42  43  44  45  46 0
 3-21G
 ****


