%nproc=1
%NoSave
%Mem=1900MB
#P OB98/GEN NMR

erre ene a

0 1
  C      163.331     -76.862     200.971
  O      164.402     -76.245     200.248
  P      164.532     -76.640     198.699
  C      166.102     -78.680     199.040
  O      165.945     -77.375     198.496
  C      167.441     -79.292     198.604
  O      167.494     -79.546     197.182
  C      168.640     -78.393     198.898
  O      168.998     -78.512     200.275
  C      169.695     -78.960     197.963
  O      170.358     -80.102     198.536
  C      168.859     -79.376     196.736
  N      171.697     -77.450     192.994
  C      172.051     -78.292     194.034
  N      173.340     -78.688     194.074
  N      171.216     -78.696     194.956
  C      169.960     -78.216     194.797
  C      169.483     -77.406     193.789
  C      170.412     -76.957     192.780
  O      170.139     -76.237     191.825
  N      168.133     -77.178     193.925
  C      167.830     -77.748     195.082
  N      168.889     -78.448     195.614
  O      164.713     -75.225     197.971
  O      163.336     -77.376     198.171
  H      169.742     -80.560     199.136
  H      163.919     -75.011     197.452
  H      172.378     -77.165     192.313
  H      166.861     -77.713     195.555
  H      169.193     -80.350     196.338
  H      170.478     -78.227     197.745
  H      174.041     -78.413     193.396
  H      168.413     -77.352     198.636
  H      173.624     -79.312     194.818
  H      167.553     -80.247     199.128
  H      165.281     -79.324     198.710
  H      166.041     -78.618     200.124
  P      168.391     -77.444     201.298
  C      170.063     -75.572     200.618
  O      169.551     -76.393     201.653
  O      168.215     -78.288     202.643
  O      167.092     -76.833     200.869
  H      167.341     -78.092     203.049
  H      170.401     -74.631     201.053
  H      169.301     -75.357     199.858
  H      170.914     -76.079     200.146
  H      163.345     -76.524     201.986
  H      163.450     -77.925     200.947
  H      162.397     -76.598     200.520

 3  4  5  6  7  8  9  10  11  12  23  26  30  31 0
 6-311+G(2d,p)
 ****
 33  35  36  37  38 0
 6-311+G(2d,p)
 ****
 1  2  13  14  15  16  17  18  19  20  21  22  24  25 0
 3-21G
 ****
 27  28  29  32  34  39  40  41  42  43  44  45  46  47  48  49 0
 3-21G
 ****


