%nproc=1
%NoSave
%Mem=1900MB
#P OB98/GEN NMR

erre ene a

0 1
  C      -62.788    -108.096    -213.284
  O      -62.082    -107.904    -214.492
  H      -62.589    -109.105    -212.917
  H      -63.862    -107.994    -213.457
  H      -62.466    -107.379    -212.525
  P      -62.039    -106.438    -215.138
  C      -60.568    -105.301    -213.350
  O      -61.865    -105.403    -213.926
  C      -60.416    -103.952    -212.652
  O      -60.462    -102.882    -213.619
  C      -61.517    -103.646    -211.644
  O      -61.328    -104.378    -210.448
  C      -61.361    -102.139    -211.505
  O      -60.279    -101.817    -210.618
  C      -61.026    -101.728    -212.958
  N      -62.182    -101.216    -213.693
  C      -62.148     -99.872    -214.045
  O      -61.225     -99.121    -213.732
  N      -63.225     -99.410    -214.755
  C      -64.342    -100.131    -215.067
  O      -65.306     -99.655    -215.661
  C      -64.340    -101.536    -214.639
  C      -63.277    -102.007    -213.985
  O      -63.143    -106.114    -216.087
  O      -60.610    -106.388    -215.859
  H      -59.545    -102.423    -210.841
  H      -60.718    -106.542    -216.815
  H      -63.221     -98.436    -215.008
  H      -65.213    -102.134    -214.864
  H      -63.258    -103.042    -213.656
  H      -60.249    -100.953    -212.963
  H      -62.252    -101.659    -211.098
  H      -62.501    -103.857    -212.080
  H      -59.430    -103.926    -212.170
  H      -59.822    -105.386    -214.147
  H      -60.430    -106.122    -212.641
  P      -62.458    -104.404    -209.318
  C      -62.970    -106.913    -209.394
  O      -63.465    -105.608    -209.666
  O      -63.123    -103.095    -209.051
  O      -61.693    -104.939    -208.017
  H      -61.549    -104.202    -207.393
  H      -63.711    -107.638    -209.659
  H      -62.744    -106.999    -208.352
  H      -62.083    -107.084    -209.967

 6  7  8  9  10  11  12  13  14  15  16  26  31  32  33  34  35 0
 6-311+G(2d,p)
 ****
 36  37 0
 6-311+G(2d,p)
 ****
 1  2  3  4  5  17  18  19  20  21  22  23  24  25 0
 3-21G
 ****
 27  28  29  30  38  39  40  41  42  43  44  45 0
 3-21G
 ****


