%nproc=1
%NoSave
%Mem=1900MB
#P OB98/GEN NMR

erre ene a

0 1
  C     -103.277    -286.090      12.114
  O     -103.153    -286.452      13.474
  P     -104.280    -286.036      14.534
  C     -103.518    -288.022      15.995
  O     -103.774    -286.620      15.942
  C     -102.586    -288.361      17.158
  O     -103.060    -287.764      18.379
  C     -102.467    -289.853      17.444
  O     -101.619    -290.478      16.495
  C     -101.926    -289.835      18.866
  O     -100.501    -289.645      18.881
  C     -102.646    -288.611      19.472
  N     -103.771    -288.992      20.317
  C     -103.461    -289.289      21.651
  O     -102.292    -289.252      22.040
  N     -104.474    -289.666      22.498
  C     -105.687    -289.760      22.044
  N     -106.645    -290.153      22.926
  C     -106.051    -289.489      20.639
  C     -105.053    -289.115      19.840
  O     -105.678    -286.396      14.157
  O     -104.053    -284.459      14.703
  H     -100.118    -290.425      18.434
  H     -104.385    -283.962      13.915
  H     -107.072    -289.594      20.306
  H     -105.232    -288.899      18.794
  H     -101.949    -288.018      20.077
  H     -102.128    -290.774      19.394
  H     -103.464    -290.312      17.436
  H     -101.596    -287.941      16.934
  H     -106.349    -290.360      23.873
  H     -103.048    -288.321      15.056
  H     -107.614    -290.290      22.671
  H     -104.466    -288.558      16.089
  P     -102.032    -291.890      15.866
  C     -100.795    -291.124      13.754
  O     -101.037    -292.192      14.647
  O     -103.484    -292.053      15.557
  O     -101.567    -292.946      16.979
  H     -102.272    -293.608      17.100
  H      -99.879    -291.334      13.192
  H     -100.670    -290.179      14.293
  H     -101.626    -291.036      13.054
  H     -102.432    -286.456      11.569
  H     -103.321    -285.024      12.031
  H     -104.172    -286.516      11.712

 3  4  5  6  7  8  9  10  11  12  13  23  27  28  29  30  32 0
 6-311+G(2d,p)
 ****
 34  35 0
 6-311+G(2d,p)
 ****
 1  2  14  15  16  17  18  19  20  21  22  24  25  26 0
 3-21G
 ****
 31  33  36  37  38  39  40  41  42  43  44  45  46 0
 3-21G
 ****


