%nproc=1
%NoSave
%Mem=1900MB
#P OB98/GEN NMR

erre ene a

0 1
  C      116.902     196.169    -291.260
  O      117.331     194.823    -291.231
  H      115.896     196.224    -290.840
  H      116.875     196.543    -292.287
  H      117.568     196.792    -290.655
  P      118.739     194.455    -291.900
  C      120.294     194.426    -289.834
  O      119.871     195.133    -290.990
  C      120.437     195.374    -288.636
  O      119.136     195.955    -288.339
  C      120.932     194.682    -287.355
  O      121.665     195.655    -286.602
  C      119.620     194.351    -286.670
  O      119.815     194.004    -285.322
  C      118.822     195.623    -286.968
  N      117.394     195.450    -286.761
  C      116.793     196.320    -285.850
  O      117.467     197.167    -285.263
  N      115.450     196.192    -285.601
  C      114.781     195.233    -286.162
  N      113.458     195.150    -285.864
  C      115.392     194.254    -287.087
  C      116.688     194.422    -287.342
  O      118.858     194.738    -293.361
  O      118.916     192.893    -291.594
  H      120.448     193.255    -285.240
  H      118.747     192.378    -292.403
  H      114.796     193.461    -287.513
  H      117.225     193.754    -288.007
  H      119.167     196.457    -286.341
  H      119.144     193.488    -287.148
  H      121.556     193.809    -287.555
  H      121.098     196.201    -288.921
  H      113.082     195.834    -285.218
  H      121.260     193.967    -290.065
  H      112.842     194.435    -286.223
  H      119.577     193.635    -289.593
  P      123.169     195.418    -286.101
  C      124.280     197.543    -287.051
  O      124.184     196.122    -287.120
  O      123.493     193.988    -285.810
  O      123.307     196.300    -284.770
  H      123.942     195.868    -284.167
  H      124.986     197.888    -287.777
  H      124.604     197.832    -286.073
  H      123.322     197.975    -287.251

 6  7  8  9  10  11  12  13  14  15  16  26  30  31  32  33  35 0
 6-311+G(2d,p)
 ****
 37  38 0
 6-311+G(2d,p)
 ****
 1  2  3  4  5  17  18  19  20  21  22  23  24  25 0
 3-21G
 ****
 27  28  29  34  36  39  40  41  42  43  44  45  46 0
 3-21G
 ****


