%nproc=1
%NoSave
%Mem=1900MB
#P OB98/GEN NMR

erre ene a

0 1
  C      134.065     286.618    -180.365
  O      133.034     285.874    -180.979
  H      134.469     287.329    -181.093
  H      134.871     285.951    -180.044
  H      133.677     287.173    -179.508
  P      132.277     284.797    -180.062
  C      134.105     283.091    -180.779
  O      133.361     283.665    -179.711
  C      133.287     281.987    -181.443
  O      134.082     281.349    -182.468
  C      132.864     280.867    -180.497
  O      131.740     281.230    -179.715
  C      132.581     279.740    -181.481
  O      131.264     279.842    -182.039
  C      133.631     279.979    -182.575
  N      135.249     275.245    -183.559
  C      134.094     275.885    -183.852
  N      133.748     277.160    -183.568
  C      134.746     277.788    -182.923
  C      135.974     277.263    -182.550
  C      136.216     275.924    -182.899
  N      137.377     275.262    -182.572
  N      136.713     278.205    -181.861
  C      135.951     279.277    -181.826
  N      134.758     279.074    -182.458
  O      131.293     284.072    -181.098
  O      131.542     285.361    -178.892
  H      131.156     279.081    -182.644
  H      130.414     284.494    -181.064
  H      133.349     275.295    -184.379
  H      136.212     280.217    -181.349
  H      133.217     279.854    -183.583
  H      132.653     278.763    -180.999
  H      133.705     280.573    -179.855
  H      132.412     282.441    -181.924
  H      135.035     282.663    -180.384
  H      134.352     283.875    -181.501
  H      137.474     274.294    -182.835
  H      138.060     275.727    -181.987
  P      131.501     280.476    -178.321
  C      129.292     279.288    -179.014
  O      130.651     279.148    -178.626
  O      130.461     281.429    -177.565
  O      132.737     280.246    -177.518
  H      130.926     281.985    -176.909
  H      128.867     278.320    -179.180
  H      129.236     279.862    -179.916
  H      128.749     279.788    -178.239

 6  7  8  9  10  11  12  13  14  15  25  28  32  33  34  35 0
 6-311+G(2d,p)
 ****
 36  37  40 0
 6-311+G(2d,p)
 ****
 1  2  3  4  5  16  17  18  19  20  21  22  23  24 0
 3-21G
 ****
 26  27  29  30  31  38  39 41  42  43  44  45  46  47  48 0
 3-21G
 ****


