%nproc=1
%NoSave
%Mem=1900MB
#P OB98/GEN NMR

erre ene a

0 1
  C     -275.090     374.820     426.900
  O     -274.085     375.601     426.281
  H     -275.780     375.485     427.426
  H     -274.636     374.138     427.623
  H     -275.649     374.252     426.150
  P     -273.111     374.836     425.269
  C     -274.162     374.616     422.876
  O     -274.039     374.086     424.187
  C     -274.546     373.511     421.897
  O     -273.546     372.468     421.886
  C     -275.827     372.778     422.255
  O     -276.982     373.552     422.022
  C     -275.719     371.558     421.348
  O     -276.205     371.840     420.027
  C     -274.195     371.299     421.323
  N     -273.842     370.085     422.033
  C     -274.142     368.891     421.362
  O     -274.644     368.924     420.242
  N     -273.895     367.702     421.995
  C     -273.424     367.699     423.204
  N     -273.229     366.486     423.788
  C     -273.097     368.935     423.947
  C     -273.328     370.078     423.308
  O     -272.552     373.635     426.167
  O     -272.048     375.688     424.658
  H     -275.678     372.597     419.697
  H     -273.245     373.145     426.638
  H     -272.688     368.880     424.945
  H     -273.121     371.032     423.780
  H     -273.833     371.212     420.292
  H     -276.301     370.717     421.729
  H     -275.784     372.429     423.297
  H     -274.606     373.950     420.891
  H     -273.520     365.668     423.265
  H     -273.229     375.094     422.562
  H     -272.940     366.363     424.747
  H     -274.936     375.388     422.900
  P     -278.037     373.849     423.188
  C     -277.513     376.251     423.960
  O     -277.319     374.862     424.212
  O     -278.631     372.646     423.837
  O     -279.107     374.800     422.473
  H     -278.746     375.633     422.120
  H     -276.993     376.824     424.699
  H     -278.558     376.479     424.002
  H     -277.134     376.494     422.989

 6  7  8  9  10  11  12  13  14  15  16  26  30  31  32  33  35 0
 6-311+G(2d,p)
 ****
 37  38 0
 6-311+G(2d,p)
 ****
 1  2  3  4  5  17  18  19  20  21  22  23  24  25 0
 3-21G
 ****
 27  28  29  34  36  39  40  41  42  43  44  45  46 0
 3-21G
 ****


