%nproc=1
%NoSave
%Mem=1900MB
#P OB98/GEN NMR

erre ene a

0 1
  C      610.477    -301.595     171.340
  O      611.658    -301.936     170.598
  P      612.031    -301.209     169.217
  C      611.792    -303.253     167.647
  O      612.683    -302.289     168.220
  C      612.539    -304.279     166.802
  O      613.292    -305.186     167.642
  C      611.641    -305.156     165.931
  O      611.227    -304.446     164.770
  C      612.548    -306.356     165.676
  O      613.478    -306.064     164.617
  C      613.283    -306.486     167.012
  N      614.229    -310.682     169.784
  C      615.037    -309.892     169.044
  N      614.702    -308.787     168.327
  C      613.396    -308.518     168.455
  C      612.448    -309.232     169.173
  C      612.908    -310.374     169.865
  N      612.085    -311.184     170.616
  N      611.199    -308.672     169.043
  C      611.386    -307.612     168.267
  N      612.701    -307.478     167.894
  O      612.838    -299.959     169.376
  O      610.620    -300.884     168.532
  H      613.006    -306.197     163.769
  H      610.702    -300.093     167.960
  H      616.081    -310.178     169.015
  H      610.622    -306.918     167.973
  H      614.336    -306.768     166.864
  H      611.988    -307.255     165.381
  H      610.765    -305.477     166.502
  H      613.266    -303.746     166.183
  H      611.064    -302.723     167.031
  H      612.483    -312.002     171.044
  H      611.098    -310.991     170.630
  H      611.258    -303.747     168.476
  P      609.693    -304.456     164.321
  C      609.759    -306.298     162.527
  O      609.658    -304.905     162.783
  O      608.917    -303.230     164.649
  O      609.087    -305.742     165.076
  H      608.142    -305.595     165.256
  H      610.810    -306.602     162.589
  H      609.389    -306.502     161.516
  H      609.170    -306.869     163.246
  H      610.424    -302.198     172.222
  H      609.612    -301.771     170.735
  H      610.515    -300.562     171.615

 3  4  5  6  7  8  9  10  11  12  22  25  29  30  31  32 0
 6-311+G(2d,p)
 ****
 33  36  37 0
 6-311+G(2d,p)
 ****
 1  2  13  14  15  16  17  18  19  20  21  23  24  26 0
 3-21G
 ****
 27  28  34  35  38  39  40  41  42  43  44  45  46  47  48 0
 3-21G
 ****


