%nproc=1
%NoSave
%Mem=1900MB
#P OB98/GEN NMR

erre ene a

0 1
  C      -19.635    -343.358    -277.167
  O      -18.455    -342.788    -276.622
  P      -17.944    -343.168    -275.146
  C      -18.497    -342.146    -272.833
  O      -18.956    -342.432    -274.144
  C      -19.235    -340.935    -272.262
  O      -18.711    -339.734    -272.893
  C      -20.752    -340.953    -272.489
  O      -21.360    -340.343    -271.348
  C      -20.923    -340.075    -273.717
  O      -22.235    -339.545    -273.831
  C      -19.826    -339.029    -273.475
  N      -19.432    -338.341    -274.699
  C      -20.431    -337.701    -275.437
  O      -21.605    -337.739    -275.074
  N      -20.075    -337.026    -276.574
  C      -18.843    -337.057    -276.990
  N      -18.531    -336.322    -278.093
  C      -17.782    -337.813    -276.301
  C      -18.137    -338.402    -275.164
  O      -16.501    -342.891    -274.892
  O      -18.358    -344.702    -274.968
  H      -22.305    -339.083    -274.685
  H      -17.687    -345.328    -275.337
  H      -16.778    -337.832    -276.702
  H      -17.420    -338.959    -274.578
  H      -20.160    -338.299    -272.732
  H      -20.716    -340.663    -274.619
  H      -21.148    -341.965    -272.616
  H      -19.008    -340.866    -271.190
  H      -19.245    -335.685    -278.432
  H      -17.429    -341.918    -272.885
  H      -17.575    -336.039    -278.279
  H      -18.630    -343.026    -272.195
  P      -22.686    -341.018    -270.739
  C      -25.248    -340.738    -271.052
  O      -23.953    -340.390    -271.492
  O      -22.774    -340.318    -269.296
  O      -22.663    -342.504    -270.580
  H      -23.264    -340.906    -268.689
  H      -25.980    -340.214    -271.669
  H      -25.395    -340.440    -270.010
  H      -25.409    -341.816    -271.157
  H      -19.794    -342.974    -278.153
  H      -20.471    -343.108    -276.547
  H      -19.530    -344.422    -277.212

 3  4  5  6  7  8  9  10  11  12  13  23  27  28  29  30  32 0
 6-311+G(2d,p)
 ****
 34  35 0
 6-311+G(2d,p)
 ****
 1  2  14  15  16  17  18  19  20  21  22  24  25  26 0
 3-21G
 ****
 31  33  36  37  38  39  40  41  42  43  44  45  46 0
 3-21G
 ****


