%nproc=1
%NoSave
%Mem=1900MB
#P OB98/GEN NMR

erre ene a

0 1
  C      244.240    -197.785     117.964
  O      244.291    -199.148     118.344
  P      244.339    -200.245     117.177
  C      241.741    -200.472     117.091
  O      242.943    -200.169     116.394
  C      240.537    -199.962     116.292
  O      240.680    -198.553     116.016
  C      240.383    -200.631     114.932
  O      239.793    -201.917     115.050
  C      239.509    -199.628     114.194
  O      238.121    -199.821     114.511
  C      240.019    -198.288     114.761
  N      240.886    -197.577     113.828
  C      240.253    -196.698     112.952
  O      239.032    -196.536     112.936
  N      241.066    -196.045     112.067
  C      242.411    -196.219     111.933
  O      243.081    -195.643     111.082
  C      243.026    -197.180     112.866
  C      242.245    -197.809     113.750
  O      244.259    -201.640     117.960
  O      245.545    -200.168     116.301
  H      237.616    -199.208     113.939
  H      244.803    -202.309     117.501
  H      240.629    -195.388     111.441
  H      244.093    -197.343     112.791
  H      242.675    -198.531     114.436
  H      239.168    -197.635     115.001
  H      239.605    -199.720     113.107
  H      241.358    -200.696     114.432
  H      239.636    -200.103     116.898
  H      241.763    -199.993     118.071
  H      241.677    -201.555     117.234
  P      240.131    -202.983     113.899
  C      237.933    -202.286     112.666
  O      239.332    -202.465     112.606
  O      239.310    -204.255     114.417
  O      241.595    -203.209     113.725
  H      238.498    -204.001     114.893
  H      237.616    -201.926     113.651
  H      237.434    -203.234     112.452
  H      237.639    -201.552     111.911
  H      244.212    -197.171     118.840
  H      243.362    -197.611     117.378
  H      245.108    -197.543     117.387

 3  4  5  6  7  8  9  10  11  12  13  23  28  29  30  31  32 0
 6-311+G(2d,p)
 ****
 33  34 0
 6-311+G(2d,p)
 ****
 1  2  14  15  16  17  18  19  20  21  22  24  25  26 0
 3-21G
 ****
 27  35  36  37  38  39  40  41  42  43  44  45 0
 3-21G
 ****


