%nproc=1
%NoSave
%Mem=1900MB
#P OB98/GEN NMR

erre ene a

0 1
  C     -135.924     613.725     -76.172
  O     -135.787     614.100     -77.530
  H     -136.813     614.193     -75.739
  H     -136.035     612.636     -76.115
  H     -135.037     614.019     -75.607
  P     -135.599     615.663     -77.836
  C     -133.070     615.412     -78.390
  O     -134.056     615.985     -77.533
  C     -132.097     614.584     -77.559
  O     -132.726     613.344     -77.150
  C     -130.829     614.179     -78.295
  O     -129.865     615.219     -78.322
  C     -130.359     613.012     -77.443
  O     -129.746     613.511     -76.238
  C     -131.692     612.317     -77.112
  N     -131.068     607.363     -78.257
  C     -130.567     608.130     -77.264
  N     -130.778     609.443     -77.034
  C     -131.599     609.965     -77.954
  C     -132.176     609.311     -79.031
  C     -131.888     607.940     -79.166
  N     -132.388     607.156     -80.195
  N     -132.933     610.189     -79.788
  C     -132.837     611.338     -79.162
  N     -132.039     611.259     -78.056
  O     -136.366     616.378     -76.621
  O     -136.088     616.125     -79.168
  H     -129.028     614.116     -76.519
  H     -136.595     617.294     -76.867
  H     -129.908     607.620     -76.563
  H     -133.332     612.254     -79.464
  H     -131.698     611.878     -76.107
  H     -129.625     612.380     -77.940
  H     -131.047     613.809     -79.314
  H     -131.853     615.149     -76.646
  H     -132.526     616.213     -78.897
  H     -131.968     606.246     -80.300
  H     -132.867     607.614     -80.951
  H     -133.570     614.788     -79.136
  P     -129.801     616.141     -79.633
  C     -130.304     618.434     -78.495
  O     -130.776     617.385     -79.346
  O     -130.600     615.285     -80.716
  O     -128.421     616.489     -80.086
  H     -130.307     615.507     -81.623
  H     -131.061     619.185     -78.401
  H     -129.422     618.867     -78.919
  H     -130.076     618.034     -77.529

 6  7  8  9  10  11  12  13  14  15  25  28  32  33  34  35 0
 6-311+G(2d,p)
 ****
 36  39  40 0
 6-311+G(2d,p)
 ****
 1  2  3  4  5  16  17  18  19  20  21  22  23  24 0
 3-21G
 ****
 26  27  29  30  31  37  38  41  42  43  44  45  46  47 0
 3-21G
 ****
 48 0
 3-21G
 ****


