%nproc=1
%NoSave
%Mem=1900MB
#P OB98/GEN NMR

erre ene a

0 1
  C     -381.551     350.075     235.301
  O     -382.772     350.557     235.871
  P     -382.728     351.838     236.829
  C     -382.542     352.345     239.358
  O     -382.489     351.348     238.345
  C     -381.918     351.838     240.663
  O     -382.699     350.737     241.220
  C     -380.486     351.302     240.461
  O     -379.687     351.559     241.626
  C     -380.693     349.805     240.349
  O     -379.490     349.089     240.629
  C     -381.816     349.603     241.362
  N     -383.205     345.143     243.470
  C     -382.541     346.210     243.980
  N     -382.225     347.371     243.362
  C     -382.690     347.378     242.098
  C     -383.390     346.375     241.448
  C     -383.640     345.200     242.193
  N     -384.293     344.101     241.670
  N     -383.692     346.734     240.154
  C     -383.142     347.933     240.006
  N     -382.554     348.367     241.163
  O     -383.841     352.818     236.654
  O     -381.313     352.511     236.462
  H     -379.746     348.232     241.031
  H     -381.421     353.480     236.417
  H     -382.209     346.107     245.008
  H     -383.127     348.500     239.087
  H     -381.446     349.602     242.394
  H     -381.016     349.551     239.337
  H     -379.969     351.718     239.586
  H     -381.928     352.640     241.404
  H     -383.589     352.631     239.533
  H     -384.323     343.271     242.237
  H     -384.496     344.077     240.674
  H     -382.043     353.252     238.997
  P     -378.208     352.151     241.355
  C     -375.812     351.109     241.479
  O     -377.182     350.991     241.763
  O     -377.980     353.487     241.979
  O     -378.155     352.176     239.752
  H     -378.415     351.336     239.319
  H     -375.280     350.284     241.952
  H     -375.420     352.052     241.870
  H     -375.650     351.063     240.399
  H     -381.755     349.220     234.691
  H     -380.875     349.801     236.084
  H     -381.109     350.843     234.701

 3  4  5  6  7  8  9  10  11  12  22  25  29  30  31  32 0
 6-311+G(2d,p)
 ****
 33  36  37 0
 6-311+G(2d,p)
 ****
 1  2  13  14  15  16  17  18  19  20  21  23  24  26 0
 3-21G
 ****
 27  28  34  35  38  39  40  41  42  43  44  45  46  47  48 0
 3-21G
 ****


