%nproc=1
%NoSave
%Mem=1900MB
#P OB98/GEN NMR

erre ene a

0 1
  C     -205.724    1041.274    -147.303
  O     -204.862    1041.434    -146.182
  P     -203.621    1042.429    -146.272
  C     -204.552    1044.078    -144.497
  O     -203.466    1043.196    -144.876
  C     -204.042    1045.204    -143.603
  O     -203.831    1044.783    -142.268
  C     -202.697    1045.787    -144.081
  O     -202.870    1046.568    -145.233
  C     -202.249    1046.533    -142.831
  O     -202.864    1047.831    -142.750
  C     -202.794    1045.615    -141.686
  N     -201.749    1044.807    -141.058
  C     -200.904    1045.480    -140.171
  O     -201.032    1046.708    -140.000
  N     -199.931    1044.789    -139.544
  C     -199.792    1043.497    -139.754
  N     -198.790    1042.841    -139.097
  C     -200.649    1042.749    -140.700
  C     -201.590    1043.442    -141.306
  O     -203.617    1043.331    -147.484
  O     -202.347    1041.458    -146.275
  H     -202.696    1048.137    -141.843
  H     -201.638    1041.859    -146.782
  H     -200.512    1041.684    -140.835
  H     -202.271    1042.984    -141.992
  H     -203.258    1046.214    -140.909
  H     -201.155    1046.662    -142.825
  H     -201.995    1044.946    -144.305
  H     -204.807    1046.002    -143.606
  H     -198.216    1043.389    -138.440
  H     -205.320    1043.501    -143.967
  H     -198.649    1041.841    -139.158
  H     -205.044    1044.466    -145.407
  P     -201.825    1046.347    -146.436
  C     -203.478    1046.153    -148.449
  O     -202.507    1046.948    -147.777
  O     -201.899    1044.759    -146.665
  O     -200.441    1046.816    -146.190
  H     -200.999    1044.453    -146.963
  H     -204.062    1046.817    -149.116
  H     -204.158    1045.677    -147.749
  H     -202.967    1045.383    -149.049
  H     -206.495    1040.573    -147.062
  H     -205.160    1040.912    -148.137
  H     -206.164    1042.217    -147.552

 3  4  5  6  7  8  9  10  11  12  13  23  27  28  29  30  32 0
 6-311+G(2d,p)
 ****
 34  35 0
 6-311+G(2d,p)
 ****
 1  2  14  15  16  17  18  19  20  21  22  24  25  26 0
 3-21G
 ****
 31  33  36  37  38  39  40  41  42  43  44  45  46 0
 3-21G
 ****


