%nproc=1
%NoSave
%Mem=1900MB
#P OB98/GEN NMR

erre ene a

0 1
  C      127.388    -310.832    -134.859
  O      127.791    -309.929    -135.872
  H      127.941    -310.620    -133.939
  H      126.320    -310.686    -134.667
  H      127.554    -311.866    -135.169
  P      129.234    -310.164    -136.525
  C      128.515    -311.533    -138.611
  O      129.147    -311.547    -137.338
  C      129.309    -312.366    -139.617
  O      129.406    -313.728    -139.110
  C      128.690    -312.433    -141.022
  O      129.745    -312.384    -141.991
  C      128.043    -313.805    -141.056
  O      127.915    -314.317    -142.378
  C      129.000    -314.601    -140.183
  N      128.204    -319.537    -141.120
  C      129.083    -318.653    -141.629
  N      129.272    -317.363    -141.282
  C      128.472    -317.030    -140.255
  C      127.525    -317.824    -139.620
  C      127.397    -319.138    -140.108
  N      126.452    -320.021    -139.639
  N      126.866    -317.103    -138.642
  C      127.387    -315.886    -138.701
  N      128.361    -315.795    -139.665
  O      130.137    -310.533    -135.251
  O      129.799    -309.006    -137.289
  H      127.619    -315.245    -142.327
  H      130.485    -309.716    -134.850
  H      129.719    -319.026    -142.434
  H      127.078    -315.042    -138.104
  H      129.907    -314.927    -140.724
  H      127.049    -313.754    -140.605
  H      127.967    -311.629    -141.227
  H      130.335    -311.968    -139.666
  H      128.462    -310.495    -138.974
  H      126.356    -320.908    -140.123
  H      125.770    -319.704    -138.969
  H      127.497    -311.925    -138.515
  P      129.999    -310.992    -142.751
  C      131.324    -309.660    -140.945
  O      130.099    -309.831    -141.646
  O      128.599    -310.708    -143.466
  O      131.121    -311.040    -143.731
  H      128.741    -310.235    -144.303
  H      131.227    -308.852    -140.250
  H      132.106    -309.440    -141.642
  H      131.561    -310.559    -140.416

 6  7  8  9  10  11  12  13  14  15  25  28  32  33  34  35 0
 6-311+G(2d,p)
 ****
 36  39  40 0
 6-311+G(2d,p)
 ****
 1  2  3  4  5  16  17  18  19  20  21  22  23  24 0
 3-21G
 ****
 26  27  29  30  31  37  38  41  42  43  44  45  46  47 0
 3-21G
 ****
 48 0
 3-21G
 ****


