%nproc=1
%NoSave
%Mem=1900MB
#P OB98/GEN NMR

erre ene a

0 1
  C       65.639    -122.193     260.951
  O       65.570    -123.471     260.309
  P       66.201    -123.596     258.835
  C       65.221    -123.118     256.449
  O       64.973    -123.382     257.825
  C       64.005    -123.506     255.613
  O       63.906    -124.949     255.492
  C       62.673    -123.060     256.200
  O       62.473    -121.664     256.031
  C       61.702    -123.945     255.428
  O       61.452    -123.396     254.123
  C       62.504    -125.261     255.297
  N       62.058    -126.296     256.223
  C       60.713    -126.648     256.134
  O       59.928    -126.115     255.345
  N       60.293    -127.625     256.995
  C       61.059    -128.249     257.942
  O       60.629    -129.124     258.679
  C       62.459    -127.797     258.022
  C       62.891    -126.858     257.174
  O       66.511    -125.159     258.764
  O       67.377    -122.704     258.630
  H       65.853    -125.704     259.232
  H       62.314    -123.083     253.785
  H       59.325    -127.901     256.938
  H       63.092    -128.252     258.776
  H       63.918    -126.513     257.219
  H       62.418    -125.657     254.280
  H       60.733    -124.049     255.933
  H       62.635    -123.310     257.267
  H       64.134    -123.086     254.606
  H       66.087    -123.692     256.111
  H       65.459    -122.056     256.333
  P       62.869    -120.718     257.270
  C       61.834    -120.437     259.657
  O       61.644    -120.787     258.304
  O       62.737    -119.263     256.602
  O       64.216    -121.014     257.845
  H       61.935    -119.168     256.055
  H       60.859    -120.209     260.098
  H       62.478    -119.565     259.761
  H       62.273    -121.286     260.189
  H       65.185    -122.255     261.918
  H       65.121    -121.468     260.359
  H       66.663    -121.901     261.056

 3  4  5  6  7  8  9  10  11  12  13  24  28  29  30  31  32 0
 6-311+G(2d,p)
 ****
 33  34 0
 6-311+G(2d,p)
 ****
 1  2  14  15  16  17  18  19  20  21  22  23  25  26  27 0
 3-21G
 ****
 35  36  37  38  39  40  41  42  43  44  45 0
 3-21G
 ****


