%nproc=1
%NoSave
%Mem=1900MB
#P OB98/GEN NMR

erre ene a

0 1
  C        3.816      72.333    -144.031
  O        4.901      72.454    -144.927
  P        5.522      71.146    -145.611
  C        6.796      69.036    -144.869
  O        6.256      70.295    -144.465
  C        7.546      68.385    -143.706
  O        8.647      69.221    -143.285
  C        6.694      68.176    -142.460
  O        5.835      67.063    -142.619
  C        7.770      68.000    -141.396
  O        8.270      66.650    -141.399
  C        8.857      68.976    -141.876
  N       11.356      71.800    -138.433
  C       11.521      70.523    -138.842
  N       10.784      69.829    -139.740
  C        9.778      70.585    -140.210
  C        9.466      71.889    -139.863
  C       10.325      72.521    -138.943
  N       10.206      73.843    -138.570
  N        8.338      72.316    -140.545
  C        7.977      71.276    -141.278
  N        8.852      70.234    -141.159
  O        6.345      71.395    -146.837
  O        4.241      70.253    -145.965
  H        9.109      66.647    -140.903
  H        4.201      70.105    -146.930
  H       12.355      69.989    -138.393
  H        7.103      71.239    -141.915
  H        9.864      68.550    -141.777
  H        7.405      68.206    -140.384
  H        6.118      69.086    -142.240
  H        7.960      67.428    -144.060
  H        7.482      69.208    -145.704
  H       10.958      74.231    -138.020
  H        9.649      74.463    -139.156
  H        5.984      68.386    -145.209
  P        4.294      67.182    -142.191
  C        2.973      67.142    -139.990
  O        4.229      66.929    -140.609
  O        3.330      66.383    -143.011
  O        3.989      68.751    -142.308
  H        3.055      68.888    -142.564
  H        2.811      68.216    -139.856
  H        2.976      66.658    -139.010
  H        2.159      66.723    -140.594
  H        3.537      73.303    -143.676
  H        4.104      71.719    -143.203
  H        2.985      71.885    -144.535

 3  4  5  6  7  8  9  10  11  12  22  25  29  30  31  32 0
 6-311+G(2d,p)
 ****
 33  36  37 0
 6-311+G(2d,p)
 ****
 1  2  13  14  15  16  17  18  19  20  21  23  24  26 0
 3-21G
 ****
 27  28  34  35  38  39  40  41  42  43  44  45  46  47  48 0
 3-21G
 ****


