%nproc=1
%NoSave
%Mem=1900MB
#P OB98/GEN NMR

erre ene a

0 1
  C       36.941    -394.840     236.096
  O       36.447    -395.774     237.036
  H       36.562    -395.108     235.104
  H       38.033    -394.860     236.074
  H       36.591    -393.836     236.345
  P       36.977    -395.615     238.546
  C       39.246    -396.876     238.238
  O       37.914    -396.906     238.752
  C       40.002    -398.119     238.688
  O       40.168    -398.125     240.125
  C       39.309    -399.444     238.361
  O       39.445    -399.824     236.997
  C       40.067    -400.374     239.290
  O       41.382    -400.627     238.757
  C       40.137    -399.509     240.573
  N       39.011    -399.743     241.480
  C       38.955    -400.981     242.120
  O       39.821    -401.833     241.909
  N       37.901    -401.252     242.950
  C       36.988    -400.351     243.160
  N       35.966    -400.681     243.994
  C       37.008    -399.019     242.523
  C       38.044    -398.786     241.707
  O       35.693    -395.978     239.430
  O       37.619    -394.312     238.883
  H       41.264    -401.280     238.045
  H       35.948    -396.054     240.381
  H       36.222    -398.310     242.713
  H       38.127    -397.829     241.202
  H       41.071    -399.696     241.122
  H       39.582    -401.337     239.418
  H       38.254    -399.426     238.651
  H       41.013    -398.075     238.246
  H       35.946    -401.616     244.380
  H       39.741    -395.974     238.623
  H       35.138    -400.109     244.103
  H       39.228    -396.838     237.146
  P       38.129    -399.768     236.083
  C       37.338    -402.106     236.913
  O       37.694    -401.289     235.807
  O       38.694    -399.283     234.662
  O       37.047    -398.875     236.589
  H       38.042    -398.716     234.211
  H       37.075    -403.083     236.565
  H       36.503    -401.672     237.423
  H       38.168    -402.178     237.585

 6  7  8  9  10  11  12  13  14  15  16  26  30  31  32  33  35 0
 6-311+G(2d,p)
 ****
 37  38 0
 6-311+G(2d,p)
 ****
 1  2  3  4  5  17  18  19  20  21  22  23  24  25 0
 3-21G
 ****
 27  28  29  34  36  39  40  41  42  43  44  45  46 0
 3-21G
 ****


