%nproc=1
%NoSave
%Mem=1900MB
#P OB98/GEN NMR

erre ene a

0 1
  C     -275.136     456.618    -553.398
  O     -276.155     457.610    -553.317
  P     -277.073     457.945    -554.594
  C     -277.038     459.856    -556.314
  O     -276.251     459.004    -555.475
  C     -276.267     460.220    -557.585
  O     -275.186     461.124    -557.235
  C     -275.640     459.002    -558.278
  O     -275.694     459.212    -559.696
  C     -274.177     459.046    -557.849
  O     -273.336     458.398    -558.817
  C     -273.948     460.544    -557.687
  N     -269.016     461.831    -557.005
  C     -269.754     461.633    -558.122
  N     -271.046     461.269    -558.233
  C     -271.606     461.158    -557.014
  C     -270.991     461.338    -555.789
  C     -269.629     461.688    -555.808
  N     -268.886     461.902    -554.667
  N     -271.885     461.121    -554.760
  C     -273.021     460.824    -555.354
  N     -272.906     460.854    -556.720
  O     -278.471     458.357    -554.266
  O     -277.034     456.619    -555.475
  H     -273.551     457.438    -558.792
  H     -277.914     456.450    -555.886
  H     -269.217     461.782    -559.064
  H     -273.945     460.592    -554.851
  H     -273.682     461.019    -558.637
  H     -274.061     458.511    -556.895
  H     -276.129     458.054    -558.018
  H     -276.938     460.750    -558.262
  H     -277.273     460.767    -555.760
  H     -267.957     462.266    -554.780
  H     -269.379     461.955    -553.776
  H     -277.984     459.352    -556.562
  P     -276.203     457.945    -560.560
  C     -274.939     455.744    -561.171
  O     -275.160     456.775    -560.214
  O     -276.396     458.299    -562.000
  O     -277.542     457.556    -559.781
  H     -277.524     457.855    -558.843
  H     -274.229     455.031    -560.732
  H     -274.504     456.160    -562.090
  H     -275.875     455.230    -561.410
  H     -274.638     456.540    -552.454
  H     -274.429     456.894    -554.153
  H     -275.575     455.675    -553.648

 3  4  5  6  7  8  9  10  11  12  22  25  29  30  31  32 0
 6-311+G(2d,p)
 ****
 33  36  37 0
 6-311+G(2d,p)
 ****
 1  2  13  14  15  16  17  18  19  20  21  23  24  26 0
 3-21G
 ****
 27  28  34  35  38  39  40  41  42  43  44  45  46  47  48 0
 3-21G
 ****


