%nproc=1
%NoSave
%Mem=1900MB
#P OB98/GEN NMR

erre ene a

0 1
  C      140.463    -890.450    -764.106
  O      140.604    -891.340    -765.205
  P      141.940    -892.220    -765.399
  C      140.877    -894.580    -765.670
  O      141.659    -893.700    -764.832
  C      139.453    -894.780    -765.060
  O      138.733    -893.510    -764.993
  C      138.526    -895.720    -765.843
  O      138.928    -897.080    -765.632
  C      137.171    -895.350    -765.287
  O      136.930    -896.020    -764.031
  C      137.314    -893.830    -765.074
  N      136.667    -893.050    -766.126
  C      135.275    -892.990    -766.094
  O      134.650    -893.590    -765.219
  N      134.645    -892.240    -767.025
  C      135.298    -891.660    -767.985
  N      134.598    -890.910    -768.909
  C      136.768    -891.740    -768.107
  C      137.402    -892.480    -767.153
  O      143.175    -891.620    -764.859
  O      142.063    -892.440    -766.991
  H      137.574    -895.680    -763.383
  H      142.988    -892.540    -767.226
  H      137.325    -891.300    -768.952
  H      138.447    -892.610    -767.178
  H      136.869    -893.540    -764.105
  H      136.375    -895.630    -765.977
  H      138.592    -895.480    -766.900
  H      139.589    -895.140    -764.035
  H      133.608    -890.850    -768.776
  H      141.344    -895.560    -765.764
  H      135.039    -890.430    -769.672
  H      140.767    -894.110    -766.664
  P      139.597    -897.940    -766.838
  C      141.644    -899.040    -765.807
  O      141.164    -897.960    -766.600
  O      139.148    -897.530    -768.229
  O      139.137    -899.430    -766.492
  H      139.039    -899.930    -767.339
  H      142.726    -899.210    -766.064
  H      141.108    -900.000    -766.036
  H      141.556    -898.830    -764.746
  H      139.511    -889.965    -764.160
  H      141.240    -889.715    -764.140
  H      140.532    -891.000    -763.191

 3  4  5  6  7  8  9  10  11  12  13  23  27  28  29  30  32 0
 6-311+G(2d,p)
 ****
 34  35 0
 6-311+G(2d,p)
 ****
 1  2  14  15  16  17  18  19  20  21  22  24  25  26 0
 3-21G
 ****
 31  33  36  37  38  39  40  41  42  43  44  45  46 0
 3-21G
 ****


