%nproc=1
%NoSave
%Mem=1900MB
#P OB98/GEN NMR

erre ene a

0 1
  C      126.251     109.443      40.019
  O      126.390     109.772      38.650
  H      127.246     109.377      40.466
  H      125.751     108.477      40.126
  H      125.680     110.220      40.539
  P      125.031     109.893      37.804
  C      125.784     107.658      36.721
  O      124.711     108.415      37.261
  C      125.644     106.187      37.097
  O      125.410     106.043      38.517
  C      124.501     105.463      36.393
  O      124.886     105.036      35.096
  C      124.256     104.300      37.344
  O      125.204     103.234      37.133
  C      124.468     104.957      38.717
  N      120.868     103.992      42.125
  C      122.005     103.280      41.805
  N      122.183     102.107      42.454
  N      122.885     103.673      40.923
  C      122.559     104.846      40.330
  C      121.469     105.653      40.572
  C      120.519     105.219      41.575
  O      119.528     105.837      41.950
  N      121.498     106.775      39.782
  C      122.577     106.628      39.039
  N      123.246     105.464      39.323
  O      125.483     110.677      36.481
  O      123.905     110.585      38.495
  H      125.172     102.958      36.201
  H      124.733     111.212      36.156
  H      120.237     103.644      42.826
  H      122.914     107.328      38.288
  H      124.914     104.265      39.442
  H      123.264     103.865      37.205
  H      121.408     101.610      42.873
  H      123.605     106.096      36.353
  H      123.004     101.568      42.208
  H      126.602     105.697      36.877
  H      126.729     108.044      37.121
  H      125.790     107.768      35.631
  P      124.320     105.863      33.842
  C      123.394     103.712      32.705
  O      123.110     105.000      33.240
  O      125.471     105.698      32.741
  O      124.013     107.297      34.127
  H      125.367     106.376      32.045
  H      122.489     103.268      32.346
  H      123.816     103.094      33.469
  H      124.090     103.807      31.898

 6  7  8  9  10  11  12  13  14  15  26  29  33  34 0
 6-311+G(2d,p)
 ****
 36  38  39  40  41 0
 6-311+G(2d,p)
 ****
 1  2  3  4  5  16  17  18  19  20  21  22  23  24  25 0
 3-21G
 ****
 27  28  30  31  32  35  37  42  43  44  45  46  47 0
 3-21G
 ****
 48  49 0
 3-21G
 ****


