%nproc=1
%NoSave
%Mem=1900MB
#P OB98/GEN NMR

erre ene a

0 1
  C      -67.884    -619.822     414.974
  O      -66.710    -619.621     414.212
  H      -68.481    -618.908     414.987
  H      -68.471    -620.619     414.507
  H      -67.628    -620.122     415.993
  P      -65.716    -618.471     414.730
  C      -63.660    -620.051     414.687
  O      -64.242    -618.851     414.197
  C      -62.279    -620.247     414.092
  O      -62.419    -620.517     412.669
  C      -61.340    -619.028     414.246
  O      -60.074    -619.425     414.787
  C      -61.135    -618.534     412.825
  O      -59.833    -617.997     412.609
  C      -61.386    -619.788     411.997
  N      -59.768    -617.757     407.603
  C      -59.101    -618.281     408.645
  N      -59.581    -618.899     409.748
  C      -60.920    -618.969     409.680
  C      -61.755    -618.505     408.683
  C      -61.121    -617.849     407.606
  N      -61.823    -617.259     406.581
  N      -63.090    -618.749     408.983
  C      -63.063    -619.316     410.165
  N      -61.780    -619.467     410.642
  O      -65.629    -618.742     416.308
  O      -66.169    -617.082     414.436
  H      -59.686    -617.309     413.287
  H      -65.968    -617.960     416.779
  H      -58.014    -618.192     408.601
  H      -63.929    -619.608     410.745
  H      -60.496    -620.430     411.956
  H      -61.877    -617.750     412.601
  H      -61.779    -618.247     414.885
  H      -61.817    -621.138     414.540
  H      -64.303    -620.903     414.410
  H      -61.296    -616.707     405.908
  H      -62.827    -617.216     406.622
  H      -63.607    -619.998     415.782
  P      -59.518    -618.552     416.017
  C      -58.571    -620.665     417.196
  O      -58.307    -619.359     416.690
  O      -60.700    -618.653     417.096
  O      -59.225    -617.130     415.664
  H      -61.005    -617.757     417.343
  H      -57.674    -621.075     417.612
  H      -58.915    -621.293     416.401
  H      -59.322    -620.608     417.956

 6  7  8  9  10  11  12  13  14  15  25  28  32  33  34  35 0
 6-311+G(2d,p)
 ****
 36  39  40 0
 6-311+G(2d,p)
 ****
 1  2  3  4  5  16  17  18  19  20  21  22  23  24 0
 3-21G
 ****
 26  27  29  30  31  37  38  41  42  43  44  45  46  47  48 0
 3-21G
 ****


