%nproc=1
%NoSave
%Mem=1900MB
#P OB98/GEN NMR

erre ene a

0 1
  C       60.532     114.404     -93.257
  O       59.186     114.134     -93.595
  H       60.992     114.966     -94.075
  H       61.089     113.474     -93.117
  H       60.582     115.009     -92.347
  P       58.309     113.249     -92.589
  C       57.861     113.315     -90.041
  O       58.717     113.709     -91.109
  C       58.667     113.079     -88.765
  O       59.593     111.990     -88.952
  C       59.511     114.273     -88.331
  O       58.700     115.273     -87.752
  C       60.488     113.593     -87.387
  O       59.881     113.344     -86.109
  C       60.755     112.263     -88.133
  N       61.968     112.282     -88.945
  C       63.097     111.681     -88.378
  O       63.039     111.187     -87.252
  N       64.266     111.674     -89.100
  C       64.297     112.179     -90.293
  N       65.483     112.136     -90.956
  C       63.120     112.790     -90.940
  C       62.004     112.818     -90.214
  O       58.347     111.767     -92.808
  O       56.827     113.832     -92.752
  H       59.678     114.222     -85.729
  H       56.328     113.314     -93.411
  H       63.188     113.190     -91.942
  H       61.093     113.251     -90.615
  H       60.839     111.433     -87.418
  H       61.377     114.196     -87.206
  H       60.075     114.667     -89.184
  H       57.967     112.785     -87.973
  H       66.258     111.688     -90.478
  H       57.366     112.388     -90.350
  H       65.583     112.348     -91.938
  H       57.090     114.075     -89.864
  P       59.145     116.814     -87.741
  C       59.245     118.576     -89.612
  O       59.396     117.205     -89.280
  O       60.266     117.145     -86.817
  O       57.789     117.594     -87.404
  H       57.583     117.527     -86.439
  H       59.436     118.713     -90.656
  H       59.939     119.159     -89.043
  H       58.247     118.890     -89.387

 6  7  8  9  10  11  12  13  14  15  16  26  30  31  32  33  35 0
 6-311+G(2d,p)
 ****
 37  38 0
 6-311+G(2d,p)
 ****
 1  2  3  4  5  17  18  19  20  21  22  23  24  25 0
 3-21G
 ****
 27  28  29  34  36  39  40  41  42  43  44  45  46 0
 3-21G
 ****


