%nproc=1
%NoSave
%Mem=1900MB
#P OB98/GEN NMR

erre ene a

0 1
  C     -204.024    -379.743     150.907
  O     -204.926    -378.832     150.307
  H     -203.128    -379.215     151.249
  H     -204.509    -380.208     151.767
  H     -203.745    -380.523     150.191
  P     -204.388    -378.006     149.040
  C     -203.624    -378.627     146.639
  O     -203.885    -379.090     147.959
  C     -203.189    -379.797     145.752
  O     -201.882    -380.246     146.198
  C     -204.138    -381.009     145.776
  O     -204.602    -381.300     144.456
  C     -203.275    -382.160     146.254
  O     -203.528    -383.388     145.560
  C     -201.851    -381.665     146.005
  N     -199.030    -385.843     146.800
  C     -199.565    -385.325     145.670
  N     -200.214    -384.154     145.506
  C     -200.268    -383.475     146.668
  C     -199.753    -383.857     147.892
  C     -199.124    -385.113     147.939
  N     -198.631    -385.669     149.106
  N     -200.013    -382.903     148.858
  C     -200.714    -381.979     148.235
  N     -200.908    -382.287     146.915
  O     -203.027    -377.356     149.579
  O     -205.324    -376.974     148.511
  H     -202.958    -384.064     145.972
  H     -202.999    -376.407     149.347
  H     -199.462    -385.940     144.775
  H     -201.138    -381.089     148.696
  H     -201.517    -381.863     144.978
  H     -203.450    -382.329     147.319
  H     -205.000    -380.857     146.444
  H     -203.073    -379.432     144.728
  H     -202.818    -377.888     146.661
  H     -198.303    -386.625     149.066
  H     -198.793    -385.185     149.980
  H     -204.524    -378.152     146.238
  P     -206.195    -381.348     144.240
  C     -207.776    -379.381     144.911
  O     -206.704    -379.833     144.089
  O     -206.740    -381.774     145.687
  O     -206.636    -382.296     143.180
  H     -207.594    -382.233     145.598
  H     -207.990    -378.357     144.687
  H     -207.498    -379.470     145.940
  H     -208.645    -379.977     144.723

 6  7  8  9  10  11  12  13  14  15  25  28  32  33  34  35 0
 6-311+G(2d,p)
 ****
 36  39  40 0
 6-311+G(2d,p)
 ****
 1  2  3  4  5  16  17  18  19  20  21  22  23  24 0
 3-21G
 ****
 26  27  29  30  31  37  38  41  42  43  44  45  46  47  48 0
 3-21G
 ****


