%nproc=1
%NoSave
%Mem=1900MB
#P OB98/GEN NMR

erre ene a

0 1
  C      225.789    -295.041     -58.125
  O      225.018    -293.901     -57.806
  H      225.328    -295.545     -58.979
  H      225.801    -295.726     -57.274
  H      226.814    -294.768     -58.391
  P      225.681    -292.751     -56.911
  C      225.800    -292.224     -54.385
  O      225.625    -293.229     -55.378
  C      226.076    -292.826     -53.007
  O      227.358    -293.483     -52.996
  C      226.135    -291.758     -51.911
  O      224.886    -291.370     -51.373
  C      226.994    -292.447     -50.854
  O      226.190    -293.282     -50.004
  C      227.950    -293.302     -51.696
  N      232.043    -291.361     -49.330
  C      230.850    -291.793     -48.789
  N      230.707    -291.633     -47.452
  N      229.880    -292.311     -49.498
  C      230.127    -292.323     -50.827
  C      231.265    -291.908     -51.482
  C      232.352    -291.387     -50.682
  O      233.430    -290.981     -51.117
  N      231.153    -292.074     -52.844
  C      229.922    -292.515     -53.013
  N      229.269    -292.706     -51.820
  O      224.591    -291.576     -56.944
  O      227.018    -292.263     -57.380
  H      226.785    -293.876     -49.507
  H      225.027    -290.713     -56.806
  H      232.765    -290.995     -48.734
  H      229.465    -292.736     -53.975
  H      228.082    -294.298     -51.264
  H      227.495    -291.724     -50.204
  H      231.373    -291.131     -46.888
  H      226.674    -290.873     -52.269
  H      229.765    -291.684     -47.065
  H      225.318    -293.589     -52.787
  H      224.876    -291.642     -54.364
  H      226.606    -291.540     -54.676
  P      224.712    -289.922     -50.707
  C      225.720    -288.757     -48.609
  O      225.824    -289.795     -49.562
  O      223.340    -290.067     -49.898
  O      224.667    -288.792     -51.678
  H      222.596    -289.718     -50.422
  H      226.539    -288.819     -47.923
  H      224.798    -288.855     -48.074
  H      225.744    -287.811     -49.108

 6  7  8  9  10  11  12  13  14  15  26  29  33  34 0
 6-311+G(2d,p)
 ****
 36  38  39  40  41 0
 6-311+G(2d,p)
 ****
 1  2  3  4  5  16  17  18  19  20  21  22  23  24  25 0
 3-21G
 ****
 27  28  30  31  32  35  37  42  43  44  45  46  47 0
 3-21G
 ****
 48  49 0
 3-21G
 ****


