%nproc=1
%NoSave
%Mem=1900MB
#P OB98/GEN NMR

erre ene a

0 1
  C      481.059     314.609     174.344
  O      479.691     314.562     173.989
  H      481.280     313.843     175.092
  H      481.660     314.414     173.452
  H      481.317     315.598     174.737
  P      478.629     314.786     175.171
  C      476.211     315.716     175.311
  O      477.232     315.184     174.478
  C      475.280     316.604     174.484
  O      475.917     317.895     174.308
  C      474.927     316.048     173.094
  O      473.506     315.908     172.957
  C      475.401     317.122     172.125
  O      474.500     317.337     171.040
  C      475.529     318.361     173.007
  N      476.618     321.418     169.078
  C      475.444     320.928     169.530
  N      475.208     320.208     170.642
  C      476.344     320.022     171.334
  C      477.609     320.476     171.015
  C      477.734     321.193     169.813
  N      478.944     321.642     169.319
  N      478.534     320.081     171.965
  C      477.839     319.360     172.825
  N      476.516     319.279     172.477
  O      479.116     316.154     175.848
  O      478.547     313.675     176.166
  H      474.398     316.481     170.585
  H      479.147     316.045     176.818
  H      474.574     321.141     168.912
  H      478.248     318.839     173.685
  H      474.578     318.896     173.107
  H      476.374     316.825     171.713
  H      475.415     315.087     172.888
  H      474.365     316.773     175.069
  H      476.663     316.317     176.109
  H      478.951     322.044     168.392
  H      479.786     321.379     169.805
  H      475.657     314.892     175.770
  P      472.949     314.420     172.708
  C      471.016     313.266     174.015
  O      471.435     314.383     173.239
  O      473.745     313.549     173.793
  O      473.162     313.917     171.319
  H      473.823     312.626     173.486
  H      469.990     313.388     174.291
  H      471.617     313.199     174.898
  H      471.126     312.371     173.440

 6  7  8  9  10  11  12  13  14  15  25  28  32  33  34  35 0
 6-311+G(2d,p)
 ****
 36  39  40 0
 6-311+G(2d,p)
 ****
 1  2  3  4  5  16  17  18  19  20  21  22  23  24 0
 3-21G
 ****
 26  27  29  30  31  37  38  41  42  43  44  45  46  47  48 0
 3-21G
 ****


