%nproc=1
%NoSave
%Mem=1900MB
#P OB98/GEN NMR

erre ene a

0 1
  C      297.731     928.409    -357.517
  O      296.327     928.260    -357.744
  P      295.426     929.556    -357.997
  C      294.781     928.850    -360.394
  O      294.316     929.221    -359.105
  C      293.823     927.820    -361.014
  O      294.030     926.502    -360.459
  C      292.357     928.123    -360.736
  O      291.811     929.261    -361.385
  C      291.687     926.796    -360.999
  O      291.437     926.595    -362.390
  C      292.768     925.805    -360.492
  N      292.442     925.228    -359.182
  C      291.827     923.982    -359.197
  O      291.521     923.393    -360.237
  N      291.532     923.435    -357.982
  C      291.760     924.030    -356.766
  O      291.452     923.511    -355.700
  C      292.390     925.355    -356.815
  C      292.695     925.889    -357.999
  O      296.173     930.827    -358.197
  O      294.549     929.641    -356.643
  H      291.053     925.698    -362.483
  H      294.492     930.584    -356.386
  H      291.103     922.530    -357.971
  H      292.579     925.858    -355.877
  H      293.167     926.870    -358.060
  H      292.889     924.969    -361.200
  H      290.723     926.720    -360.479
  H      292.253     928.341    -359.661
  H      294.026     927.753    -362.086
  H      295.788     928.433    -360.324
  H      294.849     929.751    -361.018
  P      290.457     929.984    -360.910
  C      291.602     932.178    -360.136
  O      290.666     931.564    -361.005
  O      289.792     929.450    -359.676
  O      289.493     929.703    -362.165
  H      288.576     929.602    -361.838
  H      291.602     933.255    -360.316
  H      292.608     931.793    -360.331
  H      291.319     932.011    -359.096
  H      298.172     927.446    -357.368
  H      297.890     929.013    -356.648
  H      298.181     928.880    -358.366

 3  4  5  6  7  8  9  10  11  12  13  23  28  29  30  31  32 0
 6-311+G(2d,p)
 ****
 33  34 0
 6-311+G(2d,p)
 ****
 1  2  14  15  16  17  18  19  20  21  22  24  25  26  27 0
 3-21G
 ****
 35  36  37  38  39  40  41  42  43  44  45 0
 3-21G
 ****


