%nproc=1
%NoSave
%Mem=1900MB
#P OB98/GEN NMR

erre ene a

0 1
  C      486.047      92.621    -899.160
  O      485.642      93.754    -898.410
  H      487.054      92.795    -899.560
  H      485.367      92.450    -900.000
  H      486.065      91.734    -898.510
  P      484.197      93.664    -897.710
  C      484.792      95.398    -895.850
  O      484.430      94.063    -896.170
  C      485.142      95.518    -894.370
  O      483.941      95.233    -893.580
  C      486.224      94.517    -893.900
  O      486.965      95.106    -892.810
  C      485.364      93.360    -893.370
  O      486.145      92.514    -892.570
  C      484.275      94.152    -892.670
  N      482.343      90.619    -889.550
  C      483.513      91.288    -889.520
  N      483.948      92.246    -890.390
  C      483.012      92.474    -891.340
  C      481.791      91.857    -891.490
  C      481.452      90.872    -890.520
  N      480.271      90.177    -890.550
  N      481.111      92.356    -892.590
  C      481.956      93.258    -893.120
  N      483.111      93.354    -892.380
  O      483.914      92.095    -897.650
  O      483.094      94.411    -898.410
  H      486.841      92.071    -893.100
  H      483.409      91.820    -898.460
  H      484.180      91.052    -888.700
  H      481.759      93.857    -893.990
  H      484.618      94.608    -891.720
  H      484.960      92.756    -894.200
  H      486.917      94.220    -894.700
  H      485.453      96.555    -894.140
  H      483.948      96.069    -896.090
  H      485.664      95.694    -896.460
  H      480.123      89.482    -889.840
  H      479.610      90.337    -891.310
  P      487.998      96.278    -893.120
  C      487.171      98.239    -891.590
  O      487.292      97.730    -892.910
  O      488.115      96.215    -894.730
  O      489.345      96.143    -892.490
  H      489.054      96.268    -895.000
  H      486.690      99.194    -891.619
  H      488.144      98.343    -891.157
  H      486.588      97.564    -890.999

 6  7  8  9  10  11  12  13  14  15  25  28  32  33  34  35 0
 6-311+G(2d,p)
 ****
 36  37  40 0
 6-311+G(2d,p)
 ****
 1  2  3  4  5  16  17  18  19  20  21  22  23  24 0
 3-21G
 ****
 26  27  29  30  31  38  39 41  42  43  44  45  46  47  48 0
 3-21G
 ****


