%nproc=1
%NoSave
%Mem=1900MB
#P OB98/GEN NMR

erre ene a

0 1
  C     -104.118     331.625    -221.346
  O     -105.197     332.517    -221.545
  H     -104.266     331.106    -220.396
  H     -103.179     332.182    -221.300
  H     -104.079     330.887    -222.152
  P     -105.271     333.249    -222.975
  C     -107.763     333.065    -223.777
  O     -106.770     333.807    -223.091
  C     -108.441     332.075    -222.831
  O     -108.805     332.771    -221.613
  C     -109.710     331.444    -223.404
  O     -109.777     330.084    -222.971
  C     -110.828     332.248    -222.764
  O     -112.054     331.518    -222.726
  C     -110.219     332.588    -221.398
  N     -110.824     333.779    -220.802
  C     -111.870     333.566    -219.897
  O     -112.253     332.423    -219.653
  N     -112.483     334.652    -219.326
  C     -112.132     335.849    -219.680
  N     -112.793     336.884    -219.094
  C     -111.072     336.121    -220.671
  C     -110.460     335.052    -221.177
  O     -105.247     332.003    -223.979
  O     -104.192     334.253    -223.204
  H     -111.924     330.737    -222.143
  H     -105.793     331.255    -223.684
  H     -110.826     337.136    -220.945
  H     -109.664     335.160    -221.905
  H     -110.345     331.752    -220.700
  H     -111.004     333.165    -223.340
  H     -109.761     331.483    -224.492
  H     -107.710     331.309    -222.549
  H     -113.527     336.655    -218.436
  H     -107.318     332.521    -224.616
  H     -112.640     337.852    -219.333
  H     -108.496     333.771    -224.179
  P     -108.749     329.017    -223.580
  C     -108.312     327.517    -221.529
  O     -108.925     327.624    -222.804
  O     -107.340     329.484    -223.728
  O     -109.389     328.688    -225.018
  H     -108.655     328.589    -225.656
  H     -108.503     326.546    -221.122
  H     -108.714     328.263    -220.876
  H     -107.256     327.661    -221.628

 6  7  8  9  10  11  12  13  14  15  16  26  30  31  32  33  35 0
 6-311+G(2d,p)
 ****
 37  38 0
 6-311+G(2d,p)
 ****
 1  2  3  4  5  17  18  19  20  21  22  23  24  25 0
 3-21G
 ****
 27  28  29  34  36  39  40  41  42  43  44  45  46 0
 3-21G
 ****


