%nproc=1
%NoSave
%Mem=1900MB
#P OB98/GEN NMR

erre ene a

0 1
  C       70.597     -30.322     -24.056
  O       69.796     -30.265     -25.216
  H       70.373     -29.453     -23.431
  H       71.653     -30.286     -24.333
  H       70.394     -31.228     -23.479
  P       69.714     -31.551     -26.170
  C       70.908     -30.258     -28.057
  O       70.921     -31.402     -27.216
  C       71.831     -30.476     -29.257
  O       71.309     -31.594     -30.038
  C       71.921     -29.253     -30.193
  O       73.242     -29.195     -30.742
  C       70.925     -29.627     -31.272
  O       71.137     -28.903     -32.457
  C       71.170     -31.128     -31.391
  N       70.082     -31.794     -32.102
  C       69.870     -31.414     -33.421
  O       70.533     -30.556     -34.000
  N       68.807     -32.004     -34.050
  C       67.894     -32.830     -33.467
  O       66.916     -33.267     -34.057
  C       68.139     -33.156     -32.053
  C       69.209     -32.636     -31.446
  O       68.383     -31.823     -26.788
  O       70.217     -32.759     -25.248
  H       70.553     -29.239     -33.162
  H       69.903     -33.611     -25.604
  H       68.646     -31.746     -35.012
  H       67.424     -33.797     -31.555
  H       69.410     -32.840     -30.401
  H       72.115     -31.331     -31.911
  H       69.905     -29.421     -30.931
  H       71.681     -28.312     -29.694
  H       72.823     -30.772     -28.898
  H       71.253     -29.399     -27.472
  H       69.885     -30.068     -28.399
  P       74.271     -28.028     -30.349
  C       73.755     -26.561     -32.393
  O       73.792     -26.624     -30.971
  O       75.703     -28.355     -30.625
  O       74.053     -27.826     -28.775
  H       74.923     -27.772     -28.336
  H       73.425     -25.590     -32.699
  H       73.078     -27.301     -32.765
  H       74.734     -26.744     -32.784

 6  7  8  9  10  11  12  13  14  15  16  26  31  32  33  34  35 0
 6-311+G(2d,p)
 ****
 36  37 0
 6-311+G(2d,p)
 ****
 1  2  3  4  5  17  18  19  20  21  22  23  24  25 0
 3-21G
 ****
 27  28  29  30  38  39  40  41  42  43  44  45 0
 3-21G
 ****


