%nproc=1
%NoSave
%Mem=1900MB
#P OB98/GEN NMR

erre ene a

0 1
  C     -149.439      81.978     704.664
  O     -150.112      82.830     703.756
  H     -149.979      81.988     705.615
  H     -148.417      82.330     704.831
  H     -149.426      80.953     704.276
  P     -149.459      82.986     702.299
  C     -151.809      82.421     701.374
  O     -150.698      83.311     701.335
  C     -152.637      82.551     700.095
  O     -151.792      82.417     698.937
  C     -153.730      81.496     699.952
  O     -154.891      81.881     700.671
  C     -153.978      81.538     698.446
  O     -154.831      82.648     698.128
  C     -152.565      81.786     697.881
  N     -152.343      78.067     694.352
  C     -153.282      78.997     694.611
  N     -153.308      79.921     695.600
  C     -152.201      79.826     696.362
  C     -151.157      78.919     696.218
  C     -151.257      78.009     695.155
  N     -150.294      77.056     694.888
  N     -150.198      79.116     697.190
  C     -150.626      80.160     697.872
  N     -151.852      80.602     697.435
  O     -148.566      81.868     701.870
  O     -148.745      84.414     702.432
  H     -154.857      82.717     697.156
  H     -149.312      85.034     702.925
  H     -154.140      79.000     693.941
  H     -150.081      80.642     698.674
  H     -152.582      82.480     697.034
  H     -154.461      80.634     698.076
  H     -153.380      80.499     700.233
  H     -153.069      83.564     700.074
  H     -152.441      82.638     702.246
  H     -150.533      76.326     694.238
  H     -149.548      76.938     695.566
  H     -151.416      81.403     701.471
  P     -155.659      80.840     701.621
  C     -156.027      82.749     703.309
  O     -156.642      81.745     702.513
  O     -154.768      79.914     702.373
  O     -156.666      80.075     700.639
  H     -156.976      79.250     701.064
  H     -156.778      83.282     703.854
  H     -155.495      83.429     702.677
  H     -155.345      82.292     703.995

 6  7  8  9  10  11  12  13  14  15  25  28  32  33  34  35 0
 6-311+G(2d,p)
 ****
 36  39  40 0
 6-311+G(2d,p)
 ****
 1  2  3  4  5  16  17  18  19  20  21  22  23  24 0
 3-21G
 ****
 26  27  29  30  31  37  38  41  42  43  44  45  46  47 0
 3-21G
 ****
 48 0
 3-21G
 ****


