%nproc=1
%NoSave
%Mem=1900MB
#P OB98/GEN NMR

erre ene a

0 1
  C     -107.614    1168.001    -454.443
  O     -107.942    1169.149    -453.682
  P     -107.132    1169.477    -452.344
  C     -109.044    1169.427    -450.625
  O     -108.116    1170.242    -451.346
  C     -109.929    1170.285    -449.713
  O     -109.117    1170.978    -448.734
  C     -110.698    1171.381    -450.462
  O     -111.809    1170.836    -451.144
  C     -111.059    1172.326    -449.310
  O     -112.210    1171.841    -448.600
  C     -109.792    1172.229    -448.411
  N     -108.582    1176.860    -446.681
  C     -109.643    1176.052    -446.438
  N     -109.905    1174.844    -446.966
  C     -108.973    1174.502    -447.869
  C     -107.859    1175.245    -448.253
  C     -107.654    1176.476    -447.604
  N     -106.574    1177.289    -447.812
  N     -107.143    1174.559    -449.237
  C     -107.813    1173.467    -449.425
  N     -108.888    1173.332    -448.580
  O     -105.787    1170.132    -452.547
  O     -106.946    1168.047    -451.643
  H     -112.933    1171.756    -449.240
  H     -105.990    1167.835    -451.552
  H     -110.332    1176.422    -445.690
  H     -107.575    1172.698    -450.159
  H     -110.054    1172.157    -447.357
  H     -111.266    1173.337    -449.652
  H     -110.023    1171.900    -451.146
  H     -110.626    1169.624    -449.168
  H     -108.468    1168.718    -450.021
  H     -106.442    1178.071    -447.175
  H     -105.736    1176.877    -448.254
  H     -109.671    1168.877    -451.323
  P     -111.800    1170.727    -452.743
  C     -114.116    1171.746    -453.206
  O     -113.324    1170.566    -453.204
  O     -110.843    1169.757    -453.330
  O     -111.449    1172.245    -453.206
  H     -110.941    1172.203    -454.027
  H     -114.432    1171.961    -452.180
  H     -115.001    1171.579    -453.801
  H     -113.574    1172.599    -453.620
  H     -108.256    1167.944    -455.297
  H     -107.742    1167.126    -453.841
  H     -106.596    1168.066    -454.766

 3  4  5  6  7  8  9  10  11  12  22  25  29  30  31  32 0
 6-311+G(2d,p)
 ****
 33  36  37 0
 6-311+G(2d,p)
 ****
 1  2  13  14  15  16  17  18  19  20  21  23  24  26 0
 3-21G
 ****
 27  28  34  35  38  39  40  41  42  43  44  45  46  47  48 0
 3-21G
 ****


