%nproc=1
%NoSave
%Mem=1900MB
#P OB98/GEN NMR

erre ene a

0 1
  C      101.002     285.626     684.968
  O      102.315     285.591     685.488
  H      100.979     286.324     684.126
  H      100.303     285.981     685.732
  H      100.696     284.639     684.612
  P      102.662     284.528     686.638
  C      101.910     285.909     688.684
  O      103.008     285.367     687.958
  C      102.425     286.852     689.768
  O      103.218     286.121     690.732
  C      103.327     287.960     689.243
  O      102.578     288.979     688.611
  C      104.033     288.387     690.522
  O      103.205     289.271     691.294
  C      104.219     287.033     691.245
  N      105.562     286.483     691.085
  C      106.549     287.011     691.910
  O      106.343     287.917     692.714
  N      107.803     286.481     691.756
  C      108.181     285.581     690.805
  O      109.337     285.203     690.651
  C      107.101     285.073     689.942
  C      105.863     285.538     690.121
  O      103.662     283.483     686.271
  O      101.241     283.878     686.989
  H      103.617     289.330     692.178
  H      101.188     282.984     686.601
  H      108.536     286.863     692.334
  H      107.355     284.348     689.183
  H      105.053     285.184     689.491
  H      104.019     287.144     692.318
  H      104.967     288.913     690.326
  H      104.073     287.542     688.554
  H      101.556     287.273     690.295
  H      101.355     285.087     689.147
  H      101.251     286.437     687.986
  P      103.031     289.535     687.182
  C      105.039     290.959     687.910
  O      103.711     290.971     687.406
  O      101.983     289.487     686.116
  O      104.275     288.605     686.789
  H      104.076     288.127     685.964
  H      105.388     291.965     688.019
  H      105.674     290.432     687.229
  H      105.055     290.471     688.862

 6  7  8  9  10  11  12  13  14  15  16  26  31  32  33  34  35 0
 6-311+G(2d,p)
 ****
 36  37 0
 6-311+G(2d,p)
 ****
 1  2  3  4  5  17  18  19  20  21  22  23  24  25 0
 3-21G
 ****
 27  28  29  30  38  39  40  41  42  43  44  45 0
 3-21G
 ****


