%nproc=1
%NoSave
%Mem=1900MB
#P OB98/GEN NMR

erre ene a

0 1
  C     -310.539    -351.945    -241.156
  O     -309.583    -352.005    -240.100
  P     -308.072    -351.559    -240.407
  C     -307.811    -349.530    -238.723
  O     -307.882    -350.015    -240.047
  C     -306.613    -348.575    -238.597
  O     -306.837    -347.384    -239.383
  C     -306.346    -348.127    -237.159
  O     -305.522    -349.037    -236.462
  C     -305.705    -346.773    -237.377
  O     -304.320    -346.925    -237.759
  C     -306.537    -346.218    -238.563
  N     -307.805    -345.520    -238.255
  C     -307.772    -344.244    -237.694
  O     -306.741    -343.635    -237.417
  N     -308.993    -343.661    -237.459
  C     -310.211    -344.129    -237.877
  O     -311.259    -343.534    -237.689
  C     -310.170    -345.407    -238.593
  C     -308.999    -346.040    -238.739
  O     -307.981    -351.593    -241.999
  O     -307.029    -352.430    -239.765
  H     -303.967    -346.028    -237.904
  H     -307.351    -352.278    -242.290
  H     -308.989    -342.768    -236.986
  H     -311.103    -345.793    -238.979
  H     -308.968    -346.985    -239.271
  H     -305.933    -345.533    -239.170
  H     -305.696    -346.184    -236.454
  H     -307.295    -347.968    -236.636
  H     -305.721    -349.085    -238.997
  H     -307.707    -350.353    -238.008
  H     -308.738    -349.012    -238.472
  P     -305.824    -349.356    -234.919
  C     -306.223    -351.854    -235.362
  O     -306.792    -350.639    -234.922
  O     -306.270    -348.207    -234.085
  O     -304.436    -349.979    -234.391
  H     -303.889    -349.286    -233.952
  H     -306.932    -352.669    -235.162
  H     -305.289    -352.059    -234.816
  H     -306.024    -351.811    -236.431
  H     -311.491    -352.272    -240.794
  H     -310.225    -352.580    -241.958
  H     -310.618    -350.938    -241.509

 3  4  5  6  7  8  9  10  11  12  13  23  28  29  30  31  32 0
 6-311+G(2d,p)
 ****
 33  34 0
 6-311+G(2d,p)
 ****
 1  2  14  15  16  17  18  19  20  21  22  24  25  26  27 0
 3-21G
 ****
 35  36  37  38  39  40  41  42  43  44  45 0
 3-21G
 ****


