%nproc=1
%NoSave
%Mem=1900MB
#P OB98/GEN NMR

erre ene a

0 1
  C      167.473    -190.267     462.619
  O      166.618    -191.341     462.957
  P      166.960    -192.163     464.302
  C      167.977    -194.087     462.873
  O      168.170    -193.165     463.946
  C      168.228    -195.521     463.338
  O      167.748    -196.433     462.314
  C      169.708    -195.869     463.605
  O      169.724    -196.790     464.701
  C      170.111    -196.546     462.308
  O      171.302    -197.311     462.393
  C      168.839    -197.331     462.006
  N      167.528    -201.182     458.887
  C      167.405    -201.023     460.231
  N      167.770    -199.965     460.987
  C      168.301    -198.996     460.221
  C      168.502    -199.019     458.859
  C      168.090    -200.182     458.182
  N      168.223    -200.341     456.807
  N      169.101    -197.850     458.417
  C      169.254    -197.133     459.515
  N      168.766    -197.778     460.624
  O      165.700    -193.140     464.451
  O      167.173    -191.319     465.524
  H      172.080    -196.719     462.413
  H      165.447    -193.239     465.396
  H      166.956    -201.853     460.770
  H      169.724    -196.159     459.555
  H      168.739    -198.214     462.642
  H      170.277    -195.781     461.543
  H      170.316    -194.997     463.860
  H      167.636    -195.700     464.243
  H      168.703    -193.853     462.081
  H      168.085    -201.280     456.456
  H      168.821    -199.684     456.330
  H      166.976    -193.968     462.468
  P      170.593    -196.428     466.004
  C      172.463    -198.012     465.210
  O      172.111    -196.690     465.535
  O      170.321    -197.715     466.921
  O      170.289    -195.129     466.655
  H      170.474    -198.546     466.429
  H      173.476    -198.036     464.817
  H      171.779    -198.414     464.445
  H      172.414    -198.651     466.108
  H      167.133    -189.813     461.712
  H      168.469    -190.633     462.484
  H      167.463    -189.542     463.406

 3  4  5  6  7  8  9  10  11  12  22  25  29  30  31  32 0
 6-311+G(2d,p)
 ****
 33  36  37 0
 6-311+G(2d,p)
 ****
 1  2  13  14  15  16  17  18  19  20  21  23  24  26 0
 3-21G
 ****
 27  28  34  35  38  39  40  41  42  43  44  45  46  47  48 0
 3-21G
 ****


