%nproc=1
%NoSave
%Mem=1900MB
#P OB98/GEN NMR

erre ene a

0 1
  C     -185.371     -35.839    -183.829
  O     -186.686     -35.961    -183.255
  P     -187.675     -34.722    -183.031
  C     -188.260     -33.023    -181.173
  O     -187.357     -34.038    -181.613
  C     -187.631     -32.117    -180.115
  O     -187.547     -32.827    -178.829
  C     -186.207     -31.619    -180.447
  O     -186.128     -30.267    -179.994
  C     -185.341     -32.553    -179.611
  O     -184.023     -32.075    -179.403
  C     -186.195     -32.634    -178.341
  N     -185.833     -33.692    -177.409
  C     -185.010     -33.347    -176.323
  O     -184.560     -32.217    -176.198
  N     -184.691     -34.322    -175.403
  C     -185.146     -35.529    -175.560
  N     -184.796     -36.444    -174.601
  C     -185.997     -35.944    -176.681
  C     -186.295     -34.984    -177.559
  O     -189.116     -35.060    -183.220
  O     -187.207     -33.613    -184.099
  H     -188.006     -33.136    -184.426
  H     -184.089     -31.144    -179.102
  H     -186.360     -36.959    -176.761
  H     -186.946     -35.198    -178.406
  H     -186.174     -31.668    -177.824
  H     -185.267     -33.521    -180.121
  H     -185.986     -31.647    -181.520
  H     -188.298     -31.268    -179.951
  H     -184.222     -36.122    -173.831
  H     -189.150     -33.510    -180.742
  H     -185.104     -37.405    -174.613
  H     -188.582     -32.436    -182.040
  P     -185.671     -29.114    -181.009
  C     -183.380     -28.330    -181.983
  O     -184.074     -28.998    -180.948
  O     -186.124     -27.785    -180.223
  O     -186.299     -29.141    -182.367
  H     -186.287     -27.074    -180.861
  H     -182.626     -27.676    -181.541
  H     -184.050     -27.722    -182.603
  H     -182.882     -29.075    -182.619
  H     -184.910     -36.804    -183.873
  H     -184.777     -35.187    -183.224
  H     -185.449     -35.436    -184.817

 3  4  5  6  7  8  9  10  11  12  13  24  27  28  29  30  32 0
 6-311+G(2d,p)
 ****
 34  35 0
 6-311+G(2d,p)
 ****
 1  2  14  15  16  17  18  19  20  21  22  23  25  26 0
 3-21G
 ****
 31  33  36  37  38  39  40  41  42  43  44  45  46 0
 3-21G
 ****


