%nproc=1
%NoSave
%Mem=1900MB
#P OB98/GEN NMR

erre ene a

0 1
  C       82.118     269.720    -125.650
  O       83.249     270.222    -124.932
  P       83.194     270.110    -123.333
  C       81.889     272.348    -123.114
  O       83.031     271.590    -122.735
  C       81.378     273.160    -121.926
  O       80.966     272.310    -120.834
  C       82.428     274.090    -121.333
  O       82.626     275.227    -122.159
  C       81.807     274.396    -119.974
  O       80.780     275.393    -120.101
  C       81.173     273.044    -119.604
  N       81.535     271.151    -114.865
  C       80.589     271.909    -115.464
  N       80.568     272.374    -116.733
  C       81.659     271.971    -117.403
  C       82.703     271.194    -116.927
  C       82.617     270.778    -115.586
  N       83.587     270.019    -114.973
  N       83.647     270.992    -117.911
  C       83.194     271.656    -118.957
  N       81.990     272.253    -118.703
  O       84.690     269.704    -122.938
  O       82.200     269.114    -122.835
  H       80.388     275.523    -119.213
  H       84.715     268.775    -122.643
  H       79.738     272.176    -114.845
  H       83.699     271.730    -119.913
  H       80.192     273.164    -119.126
  H       82.533     274.764    -119.244
  H       83.377     273.555    -121.202
  H       80.510     273.743    -122.260
  H       81.100     271.682    -123.476
  H       83.485     269.830    -113.988
  H       84.437     269.811    -115.476
  H       82.159     272.999    -123.953
  P       83.937     275.260    -123.081
  C       85.026     276.947    -121.477
  O       84.564     276.713    -122.797
  O       83.306     275.431    -124.536
  O       84.866     274.108    -122.899
  H       82.606     276.110    -124.549
  H       85.453     277.952    -121.432
  H       85.795     276.218    -121.210
  H       84.192     276.888    -120.774
  H       82.275     269.851    -126.700
  H       81.240     270.254    -125.351
  H       81.993     268.679    -125.436

 3  4  5  6  7  8  9  10  11  12  22  25  29  30  31  32 0
 6-311+G(2d,p)
 ****
 33  36  37 0
 6-311+G(2d,p)
 ****
 1  2  13  14  15  16  17  18  19  20  21  23  24  26 0
 3-21G
 ****
 27  28  34  35  38  39  40  41  42  43  44  45  46  47  48 0
 3-21G
 ****


