%nproc=1
%NoSave
%Mem=1900MB
#P OB98/GEN NMR

erre ene a

0 1
  C     2650.946    -990.141     189.214
  O     2651.880    -990.365     190.244
  H     2651.195    -989.186     188.713
  H     2649.942    -990.056     189.632
  H     2650.973    -990.942     188.458
  P     2651.953    -991.855     190.840
  C     2654.254    -992.184     189.685
  O     2652.947    -992.683     189.884
  C     2654.622    -992.196     188.195
  O     2653.747    -991.263     187.500
  C     2656.074    -991.793     187.901
  O     2656.561    -992.583     186.794
  C     2655.946    -990.351     187.429
  O     2657.037    -989.931     186.618
  C     2654.605    -990.425     186.687
  N     2654.152    -986.762     183.281
  C     2654.603    -988.071     183.166
  N     2655.094    -988.422     181.943
  N     2654.610    -988.925     184.139
  C     2654.109    -988.429     185.282
  C     2653.621    -987.182     185.549
  C     2653.640    -986.215     184.460
  O     2653.249    -985.046     184.507
  N     2653.228    -987.060     186.856
  C     2653.498    -988.242     187.417
  N     2654.039    -989.107     186.469
  O     2650.506    -992.447     190.486
  O     2652.257    -991.943     192.294
  H     2657.019    -990.448     185.787
  H     2649.914    -992.334     191.262
  H     2654.192    -986.141     182.502
  H     2653.367    -988.518     188.451
  H     2654.714    -990.889     185.709
  H     2655.871    -989.682     188.292
  H     2655.097    -987.840     181.130
  H     2656.752    -991.906     188.763
  H     2655.411    -989.380     181.828
  H     2654.414    -993.201     187.793
  H     2654.968    -992.823     190.229
  H     2654.316    -991.156     190.089
  P     2657.680    -993.683     187.115
  C     2656.384    -995.936     186.755
  O     2656.939    -994.983     187.680
  O     2658.440    -993.108     188.402
  O     2658.625    -993.934     185.983
  H     2659.389    -993.346     188.360
  H     2655.929    -996.737     187.299
  H     2657.163    -996.324     186.133
  H     2655.648    -995.455     186.146

 6  7  8  9  10  11  12  13  14  15  26  29  33  34 0
 6-311+G(2d,p)
 ****
 36  38  39  40  41 0
 6-311+G(2d,p)
 ****
 1  2  3  4  5  16  17  18  19  20  21  22  23  24  25 0
 3-21G
 ****
 27  28  30  31  32  35  37  42  43  44  45  46  47 0
 3-21G
 ****
 48  49 0
 3-21G
 ****


