%nproc=1
%NoSave
%Mem=1900MB
#P OB98/GEN NMR

erre ene a

0 1
  C      488.257      39.393      90.896
  O      487.364      40.052      91.779
  P      487.187      41.638      91.596
  C      489.143      42.023      93.273
  O      488.602      42.290      91.983
  C      490.574      42.540      93.365
  O      491.397      41.902      92.376
  C      490.710      44.036      93.105
  O      490.307      44.773      94.243
  C      492.199      44.152      92.785
  O      492.978      44.300      93.988
  C      492.499      42.797      92.098
  N      492.727      42.937      90.663
  C      494.059      42.802      90.245
  O      494.950      42.603      91.071
  N      494.339      42.943      88.906
  C      493.383      43.198      88.071
  N      493.719      43.319      86.754
  C      491.969      43.363      88.476
  C      491.717      43.232      89.775
  O      486.248      42.046      92.828
  O      486.613      42.057      90.280
  H      493.914      44.298      93.694
  H      485.730      42.845      92.627
  H      491.218      43.575      87.734
  H      490.712      43.340      90.163
  H      493.392      42.335      92.541
  H      492.411      45.019      92.156
  H      490.118      44.328      92.232
  H      490.971      42.282      94.361
  H      494.698      43.205      86.507
  H      489.144      40.942      93.443
  H      493.044      43.494      86.023
  H      488.513      42.497      94.027
  P      489.634      46.209      93.997
  C      491.931      47.353      94.000
  O      490.759      47.070      93.255
  O      489.643      46.841      95.476
  O      488.272      46.220      93.390
  H      489.160      47.687      95.474
  H      492.666      47.804      93.329
  H      492.349      46.426      94.414
  H      491.700      48.059      94.799
  H      488.280      38.348      91.126
  H      489.238      39.805      91.008
  H      487.926      39.529      89.887

 3  4  5  6  7  8  9  10  11  12  13  21  23  27  28  29  30  32 0
 6-311+G(2d,p)
 ****
 34  35 0
 6-311+G(2d,p)
 ****
 1  2  14  15  16  17  18  19  20  22  24  25  26 0
 3-21G
 ****
 31  33  36  37  38  39  40  41  42  43  44  45  46 0
 3-21G
 ****


