%nproc=1
%NoSave
%Mem=1900MB
#P OB98/GEN NMR

erre ene a

0 1
  C      261.294       7.536      -8.812
  O      261.866       6.251      -8.931
  H      260.210       7.449      -8.936
  H      261.682       8.202      -9.587
  H      261.498       7.956      -7.823
  P      263.460       6.107      -8.854
  C      263.609       6.760      -6.361
  O      263.819       5.741      -7.333
  C      264.574       6.574      -5.184
  O      264.726       7.861      -4.532
  C      264.051       5.568      -4.149
  O      264.990       4.538      -3.845
  C      263.583       6.456      -3.002
  O      263.594       5.836      -1.732
  C      264.491       7.685      -3.123
  N      263.925       8.899      -2.539
  C      263.895       8.988      -1.150
  O      264.331       8.136      -0.377
  N      263.339      10.134      -0.643
  C      262.818      11.164      -1.367
  O      262.339      12.170      -0.855
  C      262.858      11.002      -2.828
  C      263.398       9.894      -3.340
  O      264.240       7.246      -9.423
  O      263.764       4.742      -9.632
  H      264.521       5.605      -1.522
  H      264.098       4.942     -10.527
  H      263.323      10.213       0.363
  H      262.443      11.798      -3.432
  H      263.444       9.743      -4.415
  H      265.451       7.500      -2.638
  H      262.546       6.756      -3.202
  H      263.189       5.014      -4.542
  H      265.556       6.282      -5.573
  H      262.573       6.690      -6.017
  H      263.769       7.744      -6.818
  P      264.910       3.043      -4.403
  C      266.680       2.656      -6.297
  O      266.366       2.623      -4.913
  O      263.764       2.754      -5.312
  O      264.706       2.161      -3.067
  H      264.154       1.393      -3.322
  H      267.693       2.343      -6.440
  H      266.559       3.653      -6.667
  H      266.025       1.997      -6.827

 6  7  8  9  10  11  12  13  14  15  16  26  31  32  33  34  35 0
 6-311+G(2d,p)
 ****
 36  37 0
 6-311+G(2d,p)
 ****
 1  2  3  4  5  17  18  19  20  21  22  23  24  25 0
 3-21G
 ****
 27  28  29  30  38  39  40  41  42  43  44  45 0
 3-21G
 ****


