%nproc=1
%NoSave
%Mem=1900MB
#P OB98/GEN NMR

erre ene a

0 1
  C     -127.689      64.035    -153.798
  O     -126.896      62.964    -154.268
  H     -127.146      64.551    -153.002
  H     -128.634      63.660    -153.394
  H     -127.887      64.741    -154.609
  P     -127.568      62.013    -155.376
  C     -129.808      60.675    -155.324
  O     -128.777      61.312    -154.584
  C     -131.136      60.821    -154.588
  O     -131.378      62.203    -154.247
  C     -132.349      60.385    -155.402
  O     -132.515      58.977    -155.436
  C     -133.458      61.067    -154.624
  O     -133.719      60.335    -153.411
  C     -132.811      62.436    -154.317
  N     -133.117      63.455    -155.323
  C     -134.030      64.449    -154.952
  O     -134.546      64.442    -153.836
  N     -134.365      65.416    -155.871
  C     -133.829      65.399    -157.053
  N     -134.207      66.372    -157.926
  C     -132.850      64.381    -157.477
  C     -132.545      63.451    -156.577
  O     -126.516      60.816    -155.534
  O     -127.951      62.671    -156.659
  H     -133.963      59.429    -153.675
  H     -126.899      60.109    -156.107
  H     -132.439      64.402    -158.476
  H     -131.834      62.669    -156.819
  H     -133.128      62.809    -153.336
  H     -134.399      61.121    -155.175
  H     -132.326      60.800    -156.416
  H     -131.065      60.260    -153.647
  H     -134.925      67.017    -157.627
  H     -129.550      59.616    -155.432
  H     -133.984      66.334    -158.913
  H     -129.890      61.126    -156.317
  P     -133.392      58.359    -156.632
  C     -135.931      57.864    -156.865
  O     -134.926      58.706    -156.317
  O     -133.308      56.785    -156.363
  O     -132.924      58.719    -158.008
  H     -133.235      56.288    -157.199
  H     -136.895      58.221    -156.569
  H     -135.794      56.865    -156.506
  H     -135.860      57.872    -157.933

 6  7  8  9  10  11  12  13  14  15  16  26  30  31  32  33  35 0
 6-311+G(2d,p)
 ****
 37  38 0
 6-311+G(2d,p)
 ****
 1  2  3  4  5  17  18  19  20  21  22  23  24  25 0
 3-21G
 ****
 27  28  29  34  36  39  40  41  42  43  44  45  46 0
 3-21G
 ****


