%nproc=1
%NoSave
%Mem=1900MB
#P OB98/GEN NMR

erre ene a

0 1
  C      165.886     -68.898    -181.227
  O      166.413     -67.800    -181.984
  P      166.388     -66.293    -181.432
  C      165.400     -65.221    -183.556
  O      166.519     -65.285    -182.673
  C      165.812     -64.761    -184.957
  O      166.743     -65.689    -185.547
  C      164.657     -64.635    -185.948
  O      163.942     -63.434    -185.731
  C      165.400     -64.715    -187.280
  O      165.969     -63.436    -187.616
  C      166.506     -65.728    -186.967
  N      165.988     -68.837    -190.998
  C      166.366     -67.543    -190.896
  N      166.473     -66.782    -189.785
  C      166.171     -67.499    -188.690
  C      165.766     -68.824    -188.637
  C      165.675     -69.507    -189.863
  N      165.275     -70.820    -189.964
  N      165.515     -69.207    -187.337
  C      165.781     -68.137    -186.614
  N      166.180     -67.080    -187.386
  O      167.359     -66.030    -180.326
  O      164.884     -66.069    -180.928
  H      166.463     -63.125    -186.838
  H      164.871     -65.408    -180.211
  H      166.611     -67.051    -191.835
  H      165.704     -68.079    -185.535
  H      167.452     -65.457    -187.451
  H      164.748     -65.011    -188.108
  H      163.987     -65.498    -185.853
  H      166.333     -63.800    -184.856
  H      164.673     -64.514    -183.138
  H      165.206     -71.227    -190.884
  H      164.996     -71.313    -189.130
  H      164.940     -66.213    -183.608
  P      162.632     -63.434    -184.810
  C      161.461     -61.874    -186.479
  O      161.831     -62.081    -185.129
  O      162.860     -63.715    -183.363
  O      161.700     -64.555    -185.478
  H      161.138     -64.959    -184.790
  H      162.322     -61.495    -187.037
  H      160.660     -61.131    -186.514
  H      161.106     -62.801    -186.935
  H      166.006     -69.805    -181.783
  H      164.846     -68.732    -181.035
  H      166.412     -68.976    -180.299

 3  4  5  6  7  8  9  10  11  12  22  25  29  30  31  32 0
 6-311+G(2d,p)
 ****
 33  36  37 0
 6-311+G(2d,p)
 ****
 1  2  13  14  15  16  17  18  19  20  21  23  24  26 0
 3-21G
 ****
 27  28  34  35  38  39  40  41  42  43  44  45  46  47  48 0
 3-21G
 ****


