%nproc=1
%NoSave
%Mem=1900MB
#P OB98/GEN NMR

erre ene a

0 1
  C      -29.728    -155.031     -99.746
  O      -29.186    -154.115    -100.685
  P      -29.331    -152.529    -100.473
  C      -31.176    -152.551    -102.282
  O      -30.819    -152.180    -100.957
  C      -32.629    -152.171    -102.552
  O      -33.487    -152.838    -101.603
  C      -32.930    -150.685    -102.411
  O      -32.461    -149.959    -103.537
  C      -34.444    -150.713    -102.230
  O      -35.095    -150.870    -103.501
  C      -34.637    -151.987    -101.383
  N      -34.815    -151.702     -99.963
  C      -36.109    -151.842     -99.455
  O      -37.040    -152.199    -100.177
  N      -36.322    -151.608     -98.119
  C      -35.334    -151.243     -97.360
  N      -35.589    -151.091     -96.031
  C      -33.967    -151.028     -97.866
  C      -33.779    -151.278     -99.160
  O      -28.260    -151.713    -101.111
  O      -29.429    -152.343     -98.890
  H      -36.056    -150.801    -103.335
  H      -28.551    -152.244     -98.449
  H      -33.179    -150.709     -97.198
  H      -32.800    -151.164     -99.604
  H      -35.507    -152.552    -101.741
  H      -34.844    -149.810    -101.758
  H      -32.459    -150.283    -101.505
  H      -32.894    -152.522    -103.560
  H      -36.491    -151.418     -95.702
  H      -31.064    -153.636    -102.384
  H      -34.842    -151.094     -95.347
  H      -30.501    -152.060    -102.989
  P      -31.708    -148.570    -103.264
  C      -33.970    -147.380    -103.698
  O      -32.852    -147.526    -102.842
  O      -31.258    -148.102    -104.725
  O      -30.555    -148.671    -102.321
  H      -30.313    -148.295    -104.868
  H      -34.747    -146.829    -103.162
  H      -34.368    -148.356    -103.988
  H      -33.685    -146.811    -104.587
  H      -29.526    -156.032    -100.067
  H      -30.786    -154.885     -99.675
  H      -29.281    -154.866     -98.788

 3  4  5  6  7  8  9  10  11  12  13  23  27  28  29  30  32 0
 6-311+G(2d,p)
 ****
 34  35 0
 6-311+G(2d,p)
 ****
 1  2  14  15  16  17  18  19  20  21  22  24  25  26 0
 3-21G
 ****
 31  33  36  37  38  39  40  41  42  43  44  45  46 0
 3-21G
 ****


