%nproc=1
%NoSave
%Mem=1900MB
#P OB98/GEN NMR

erre ene a

0 1
  C     -188.223     246.073     -50.683
  O     -188.165     247.216     -49.863
  H     -187.277     245.531     -50.593
  H     -188.354     246.357     -51.730
  H     -189.035     245.412     -50.370
  P     -189.413     248.227     -49.834
  C     -190.091     250.313     -51.171
  O     -189.175     249.228     -51.075
  C     -189.417     251.634     -50.798
  O     -189.067     251.618     -49.386
  C     -188.131     251.917     -51.589
  O     -188.147     253.262     -52.072
  C     -187.030     251.762     -50.553
  O     -185.849     252.484     -50.884
  C     -187.758     252.215     -49.286
  N     -187.056     251.816     -48.073
  C     -186.233     252.783     -47.489
  O     -186.134     253.900     -48.000
  N     -185.496     252.443     -46.383
  C     -185.542     251.232     -45.927
  N     -184.768     250.952     -44.842
  C     -186.381     250.171     -46.530
  C     -187.107     250.530     -47.587
  O     -189.645     248.895     -48.519
  O     -190.661     247.352     -50.321
  H     -185.174     252.314     -50.188
  H     -191.491     247.776     -50.002
  H     -186.380     249.175     -46.111
  H     -187.751     249.820     -48.096
  H     -187.884     253.308     -49.274
  H     -186.763     250.700     -50.468
  H     -187.988     251.243     -52.432
  H     -190.147     252.443     -50.923
  H     -184.206     251.710     -44.467
  H     -190.940     250.113     -50.506
  H     -184.705     250.043     -44.416
  H     -190.447     250.373     -52.203
  P     -187.759     253.470     -53.617
  C     -185.537     254.269     -54.692
  O     -186.160     253.423     -53.736
  O     -188.128     255.005     -53.889
  O     -188.498     252.555     -54.542
  H     -188.909     255.061     -54.473
  H     -184.477     254.128     -54.656
  H     -185.769     255.290     -54.470
  H     -185.896     254.026     -55.670

 6  7  8  9  10  11  12  13  14  15  16  26  30  31  32  33  35 0
 6-311+G(2d,p)
 ****
 37  38 0
 6-311+G(2d,p)
 ****
 1  2  3  4  5  17  18  19  20  21  22  23  24  25 0
 3-21G
 ****
 27  28  29  34  36  39  40  41  42  43  44  45  46 0
 3-21G
 ****


