%nproc=1
%NoSave
%Mem=1900MB
#P OB98/GEN NMR

erre ene a

0 1
  C     -205.726     439.207     345.563
  O     -204.943     439.750     344.490
  P     -205.678     440.841     343.552
  C     -203.291     441.817     343.164
  O     -204.559     441.490     342.613
  C     -202.176     441.552     342.163
  O     -201.951     440.133     342.005
  C     -202.465     442.061     340.748
  O     -202.220     443.458     340.644
  C     -201.455     441.271     339.940
  O     -200.160     441.928     340.006
  C     -201.395     439.906     340.687
  N     -202.318     434.944     340.401
  C     -201.427     435.618     341.184
  N     -200.698     434.865     342.070
  N     -201.266     436.917     341.164
  C     -202.079     437.541     340.263
  C     -203.013     436.953     339.420
  C     -203.161     435.529     339.458
  O     -203.908     434.855     338.757
  N     -203.664     437.910     338.678
  C     -203.153     439.058     339.066
  N     -202.176     438.890     340.036
  O     -206.017     442.035     344.582
  O     -206.906     440.326     342.871
  H     -200.193     442.707     339.409
  H     -206.790     442.539     344.281
  H     -202.409     433.933     340.483
  H     -203.448     440.028     338.713
  H     -200.369     439.568     340.803
  H     -201.712     441.194     338.887
  H     -200.820     433.891     342.202
  H     -203.473     441.786     340.442
  H     -200.059     435.378     342.681
  H     -201.255     442.016     342.548
  H     -203.124     441.237     344.071
  H     -203.318     442.874     343.468
  P     -203.473     444.445     340.929
  C     -201.969     446.513     341.468
  O     -202.915     445.904     340.606
  O     -203.574     444.417     342.525
  O     -204.736     444.048     340.275
  H     -204.478     444.591     342.811
  H     -201.195     445.773     341.763
  H     -202.482     446.880     342.360
  H     -201.482     447.338     340.947
  H     -205.138     438.501     346.111
  H     -206.589     438.718     345.163
  H     -206.034     439.997     346.215

 3  4  5  6  7  8  9  10  11  12  23  26  30  31  33  0
 6-311+G(2d,p)
 ****
 35  36  37  38 0
 6-311+G(2d,p)
 ****
 1  2  13  14  15  16  17  18  19  20  21  22  24  25  27  28  29 0
 3-21G
 ****
 32  34  39  40  41  42  43  44  45  46  47  48  49 0
 3-21G
 ****


