%nproc=1
%NoSave
%Mem=1900MB
#P OB98/GEN NMR

erre ene a

0 1
  C      143.636     282.856     540.133
  O      144.082     281.568     539.753
  H      144.426     283.584     539.905
  H      143.446     282.880     541.208
  H      142.726     283.144     539.590
  P      143.017     280.366     539.706
  C      143.028     278.049     538.571
  O      143.810     279.079     539.154
  C      143.764     277.402     537.392
  O      143.677     278.292     536.242
  C      145.256     277.132     537.665
  O      145.631     275.970     536.903
  C      145.907     278.375     537.075
  O      147.280     278.178     536.848
  C      145.037     278.591     535.826
  N      145.163     279.940     535.278
  C      145.579     280.043     533.960
  O      145.869     279.068     533.266
  N      145.705     281.306     533.460
  C      145.506     282.470     534.165
  O      145.668     283.574     533.670
  C      145.117     282.302     535.568
  C      144.953     281.064     536.062
  O      141.737     280.655     539.003
  O      142.786     279.987     541.247
  H      147.774     278.192     537.693
  H      141.877     279.641     541.377
  H      145.995     281.394     532.498
  H      144.967     283.201     536.154
  H      144.675     280.908     537.099
  H      145.307     277.873     535.033
  H      145.798     279.227     537.754
  H      145.487     276.993     538.719
  H      143.245     276.474     537.116
  H      142.088     278.499     538.211
  H      142.792     277.289     539.328
  P      145.582     274.498     537.532
  C      145.178     272.071     536.693
  O      145.484     273.424     536.334
  O      144.528     274.305     538.592
  O      147.041     274.250     538.139
  H      147.000     273.616     538.882
  H      145.143     271.467     535.810
  H      144.228     272.039     537.185
  H      145.934     271.697     537.352

 6  7  8  9  10  11  12  13  14  15  16  26  31  32  33  34  35 0
 6-311+G(2d,p)
 ****
 36  37 0
 6-311+G(2d,p)
 ****
 1  2  3  4  5  17  18  19  20  21  22  23  24  25 0
 3-21G
 ****
 27  28  29  30  38  39  40  41  42  43  44  45 0
 3-21G
 ****


