%nproc=1
%NoSave
%Mem=1900MB
#P OB98/GEN NMR

erre ene a

0 1
  C      187.581     538.845    -296.711
  O      187.359     539.561    -295.506
  P      187.497     538.749    -294.124
  C      184.940     538.497    -293.756
  O      186.163     539.051    -293.288
  C      183.738     539.342    -293.317
  O      183.537     539.166    -291.890
  C      183.898     540.838    -293.592
  O      182.611     541.350    -293.970
  C      184.275     541.410    -292.235
  O      183.934     542.792    -292.137
  C      183.502     540.477    -291.295
  N      184.064     540.467    -289.947
  C      183.589     541.432    -289.052
  O      182.797     542.290    -289.438
  N      184.068     541.431    -287.763
  C      185.017     540.616    -287.431
  N      185.452     540.654    -286.139
  C      185.631     539.660    -288.379
  C      185.095     539.627    -289.597
  O      188.622     539.579    -293.340
  O      187.859     537.309    -294.285
  H      183.757     543.001    -291.190
  H      189.150     538.989    -292.767
  H      186.441     539.025    -288.056
  H      185.471     538.942    -290.355
  H      182.446     540.786    -291.227
  H      185.356     541.305    -292.078
  H      184.623     541.054    -294.381
  H      182.846     538.951    -293.818
  H      185.024     541.327    -285.516
  H      184.816     537.494    -293.336
  H      186.187     540.048    -285.791
  H      184.970     538.409    -294.849
  P      182.499     542.108    -295.381
  C      182.230     544.447    -294.343
  O      181.612     543.410    -295.078
  O      181.454     541.177    -296.159
  O      183.742     542.309    -296.181
  H      181.343     541.505    -297.072
  H      181.565     545.322    -294.329
  H      183.182     544.733    -294.810
  H      182.403     544.125    -293.310
  H      187.457     539.504    -297.545
  H      186.878     538.042    -296.783
  H      188.575     538.450    -296.713

 3  4  5  6  7  8  9  10  11  12  13  21  23  27  28  29  30  32 0
 6-311+G(2d,p)
 ****
 34  35 0
 6-311+G(2d,p)
 ****
 1  2  14  15  16  17  18  19  20  22  24  25  26 0
 3-21G
 ****
 31  33  36  37  38  39  40  41  42  43  44  45  46 0
 3-21G
 ****


