%nproc=1
%NoSave
%Mem=1900MB
#P OB98/GEN NMR

erre ene a

0 1
  C      -60.211      94.377     115.099
  O      -59.820      94.207     113.752
  H      -61.098      93.765     115.287
  H      -60.456      95.424     115.295
  H      -59.408      94.052     115.766
  P      -58.595      95.114     113.242
  C      -56.681      94.656     111.532
  O      -57.821      94.153     112.212
  C      -56.222      93.657     110.475
  O      -55.718      92.453     111.096
  C      -57.322      93.188     109.526
  O      -57.638      94.135     108.520
  C      -56.659      91.951     108.949
  O      -55.647      92.342     108.002
  C      -56.029      91.337     110.218
  N      -56.915      90.383     110.892
  C      -56.612      89.026     110.732
  O      -55.650      88.672     110.055
  N      -57.434      88.093     111.319
  C      -58.454      88.478     112.021
  N      -59.231      87.509     112.575
  C      -58.801      89.895     112.225
  C      -58.000      90.784     111.641
  O      -57.608      95.145     114.502
  O      -58.954      96.456     112.703
  H      -55.102      93.019     108.442
  H      -56.748      95.558     114.246
  H      -59.670      90.169     112.808
  H      -58.192      91.845     111.748
  H      -55.085      90.831     109.983
  H      -57.350      91.295     108.421
  H      -58.222      92.884     110.073
  H      -55.390      94.113     109.924
  H      -59.002      86.545     112.367
  H      -55.885      94.817     112.267
  H      -60.125      87.702     113.008
  H      -56.920      95.608     111.050
  P      -58.925      93.836     107.606
  C      -60.703      95.292     106.384
  O      -59.614      95.249     107.297
  O      -59.942      93.143     108.626
  O      -58.659      92.978     106.409
  H      -60.484      92.467     108.173
  H      -61.048      96.300     106.288
  H      -61.498      94.676     106.748
  H      -60.382      94.932     105.429

 6  7  8  9  10  11  12  13  14  15  16  26  30  31  32  33  35 0
 6-311+G(2d,p)
 ****
 37  38 0
 6-311+G(2d,p)
 ****
 1  2  3  4  5  17  18  19  20  21  22  23  24  25 0
 3-21G
 ****
 27  28  29  34  36  39  40  41  42  43  44  45  46 0
 3-21G
 ****


