%nproc=1
%NoSave
%Mem=1900MB
#P OB98/GEN NMR

erre ene a

0 1
  C      572.584     235.097    -468.247
  O      572.312     235.504    -469.574
  H      573.466     235.632    -467.889
  H      572.785     234.022    -468.221
  H      571.738     235.332    -467.597
  P      571.020     234.857    -470.269
  C      570.442     236.963    -471.694
  O      570.859     235.604    -471.679
  C      571.661     237.890    -471.794
  O      572.568     237.359    -472.807
  C      571.311     239.327    -472.208
  O      572.271     240.217    -471.623
  C      571.529     239.275    -473.715
  O      571.627     240.574    -474.241
  C      572.791     238.420    -473.759
  N      575.953     238.591    -477.756
  C      575.992     239.192    -476.546
  N      575.114     239.085    -475.530
  C      574.122     238.236    -475.847
  C      573.942     237.555    -477.040
  C      574.917     237.761    -478.031
  N      574.868     237.169    -479.274
  N      572.787     236.798    -476.997
  C      572.279     237.015    -475.798
  N      573.055     237.877    -475.071
  O      569.808     235.429    -469.395
  O      571.004     233.367    -470.342
  H      570.779     241.054    -474.159
  H      569.588     234.802    -468.680
  H      576.847     239.842    -476.374
  H      571.365     236.588    -475.413
  H      573.684     238.974    -473.444
  H      570.695     238.777    -474.215
  H      570.303     239.629    -471.918
  H      572.206     237.870    -470.840
  H      569.890     237.168    -470.773
  H      569.788     237.132    -472.556
  H      575.592     237.393    -479.937
  H      574.084     236.578    -479.507
  P      571.863     241.058    -470.313
  C      574.228     241.712    -469.421
  O      572.993     242.142    -469.972
  O      572.070     239.975    -469.148
  O      570.461     241.572    -470.294
  H      571.307     239.992    -468.544
  H      574.860     242.560    -469.257
  H      574.706     241.037    -470.100
  H      574.050     241.215    -468.490

 6  7  8  9  10  11  12  13  14  15  25  28  32  33  34  35 0
 6-311+G(2d,p)
 ****
 36  37  40 0
 6-311+G(2d,p)
 ****
 1  2  3  4  5  16  17  18  19  20  21  22  23  24 0
 3-21G
 ****
 26  27  29  30  31  38  39 41  42  43  44  45  46  47  48 0
 3-21G
 ****


