%nproc=1
%NoSave
%Mem=1900MB
#P OB98/GEN NMR

erre ene a

0 1
  C      241.168    -216.116    -159.417
  O      241.282    -217.307    -158.666
  H      241.378    -215.269    -158.758
  H      240.153    -216.008    -159.808
  H      241.889    -216.107    -160.237
  P      241.017    -218.705    -159.405
  C      243.310    -218.763    -160.607
  O      241.906    -218.618    -160.742
  C      243.732    -220.181    -160.977
  O      243.470    -220.461    -162.369
  C      245.217    -220.476    -160.801
  O      245.618    -220.615    -159.449
  C      245.320    -221.780    -161.571
  O      244.768    -222.851    -160.785
  C      244.431    -221.467    -162.798
  N      245.203    -220.987    -163.944
  C      245.506    -221.928    -164.935
  O      245.140    -223.098    -164.823
  N      246.248    -221.530    -166.020
  C      246.672    -220.308    -166.098
  N      247.409    -219.971    -167.192
  C      246.393    -219.288    -165.069
  C      245.662    -219.691    -164.032
  O      239.583    -219.076    -159.611
  O      241.838    -219.778    -158.545
  H      243.875    -222.571    -160.513
  H      241.696    -220.664    -158.954
  H      246.795    -218.291    -165.165
  H      245.418    -219.001    -163.230
  H      243.860    -222.353    -163.102
  H      246.346    -222.056    -161.818
  H      245.829    -219.722    -161.311
  H      243.112    -220.873    -160.390
  H      247.585    -220.689    -167.881
  H      243.580    -218.530    -159.573
  H      247.843    -219.062    -167.298
  H      243.826    -218.066    -161.275
  P      247.094    -220.101    -159.069
  C      246.468    -217.737    -158.156
  O      247.059    -218.506    -159.192
  O      247.972    -220.573    -160.317
  O      247.627    -220.609    -157.765
  H      248.443    -221.403    -160.117
  H      246.532    -216.698    -158.402
  H      246.986    -217.919    -157.237
  H      245.440    -218.015    -158.047

 6  7  8  9  10  11  12  13  14  15  16  26  30  31  32  33  35 0
 6-311+G(2d,p)
 ****
 37  38 0
 6-311+G(2d,p)
 ****
 1  2  3  4  5  17  18  19  20  21  22  23  24  25 0
 3-21G
 ****
 27  28  29  34  36  39  40  41  42  43  44  45  46 0
 3-21G
 ****


