%nproc=1
%NoSave
%Mem=1900MB
#P OB98/GEN NMR

erre ene a

0 1
  C     -224.591      59.058     205.930
  O     -224.781      59.320     204.553
  H     -223.524      59.137     206.157
  H     -224.929      58.048     206.175
  H     -225.134      59.793     206.530
  P     -226.285      59.219     204.004
  C     -227.658      60.637     202.328
  O     -226.470      60.532     203.100
  C     -227.960      62.098     202.006
  O     -228.681      62.709     203.091
  C     -226.723      62.959     201.777
  O     -226.263      62.821     200.441
  C     -227.287      64.349     202.029
  O     -227.976      64.812     200.852
  C     -228.297      64.106     203.164
  N     -227.931      67.628     206.881
  C     -228.325      67.722     205.593
  N     -228.346      66.759     204.646
  C     -227.909      65.591     205.147
  C     -227.472      65.345     206.441
  C     -227.498      66.430     207.334
  N     -227.093      66.330     208.646
  N     -227.093      64.028     206.589
  C     -227.355      63.475     205.422
  N     -227.816      64.385     204.505
  O     -227.335      58.977     205.035
  O     -226.132      58.063     202.905
  H     -227.299      64.941     200.160
  H     -225.301      58.171     202.409
  H     -228.669      68.704     205.279
  H     -227.248      62.419     205.195
  H     -229.207      64.702     203.031
  H     -226.510      65.082     202.253
  H     -225.939      62.749     202.513
  H     -228.617      62.120     201.126
  H     -228.502      60.195     202.872
  H     -226.963      67.190     209.155
  H     -226.651      65.471     208.941
  H     -227.507      60.067     201.406
  P     -225.025      63.685     199.898
  C     -223.057      63.167     198.327
  O     -224.070      62.625     199.165
  O     -224.373      64.544     200.926
  O     -225.632      64.523     198.681
  H     -225.036      65.265     198.458
  H     -222.487      62.371     197.896
  H     -222.412      63.794     198.907
  H     -223.510      63.744     197.548

 6  7  8  9  10  11  12  13  14  15  25  28  32  33  34  35 0
 6-311+G(2d,p)
 ****
 36  39  40 0
 6-311+G(2d,p)
 ****
 1  2  3  4  5  16  17  18  19  20  21  22  23  24 0
 3-21G
 ****
 26  27  29  30  31  37  38  41  42  43  44  45  46  47 0
 3-21G
 ****
 48 0
 3-21G
 ****


