%nproc=1
%NoSave
%Mem=1900MB
#P OB98/GEN NMR

erre ene a

0 1
  C      143.974    -110.879      79.769
  O      144.561    -111.743      78.817
  H      143.395    -111.476      80.481
  H      143.303    -110.173      79.274
  H      144.749    -110.333      80.317
  P      145.552    -111.082      77.744
  C      145.210    -109.454      75.738
  O      144.619    -110.373      76.644
  C      144.121    -108.623      75.054
  O      143.160    -109.529      74.446
  C      143.347    -107.720      76.027
  O      143.026    -106.492      75.366
  C      142.076    -108.508      76.297
  O      140.985    -107.704      76.726
  C      141.848    -109.169      74.936
  N      140.985    -110.349      75.018
  C      139.614    -110.150      74.889
  O      139.083    -109.070      74.636
  N      138.835    -111.267      75.068
  C      139.280    -112.520      75.377
  O      138.530    -113.473      75.546
  C      140.738    -112.667      75.508
  C      141.511    -111.590      75.329
  O      146.145    -112.344      76.959
  O      146.619    -110.201      78.306
  H      146.964    -112.662      77.390
  H      140.986    -106.884      76.190
  H      137.838    -111.142      74.974
  H      141.127    -113.642      75.761
  H      142.588    -111.659      75.434
  H      141.422    -108.448      74.226
  H      142.261    -109.267      77.071
  H      143.900    -107.513      76.946
  H      144.573    -108.037      74.245
  H      145.769    -110.009      74.977
  H      145.900    -108.800      76.285
  P      143.972    -105.226      75.661
  C      143.458    -102.799      76.495
  O      143.052    -104.158      76.435
  O      144.150    -104.611      74.196
  O      145.246    -105.598      76.350
  H      143.347    -104.679      73.648
  H      142.734    -102.234      77.044
  H      143.539    -102.407      75.503
  H      144.408    -102.732      76.984

 6  7  8  9  10  11  12  13  14  15  16  27  31  32  33  34  35 0
 6-311+G(2d,p)
 ****
 36  37 0
 6-311+G(2d,p)
 ****
 1  2  3  4  5  17  18  19  20  21  22  23  24  25 0
 3-21G
 ****
 26  28  29  30  38  39  40  41  42  43  44  45 0
 3-21G
 ****


