%nproc=1
%NoSave
%Mem=1900MB
#P OB98/GEN NMR

erre ene a

0 1
  C      -24.498    -669.429    -208.278
  O      -24.396    -669.163    -206.891
  P      -23.660    -670.267    -205.972
  C      -22.260    -668.588    -204.565
  O      -22.259    -669.626    -205.535
  C      -21.749    -667.283    -205.182
  O      -22.589    -666.894    -206.284
  C      -21.758    -666.092    -204.230
  O      -20.628    -666.079    -203.373
  C      -21.687    -664.929    -205.212
  O      -20.338    -664.740    -205.650
  C      -22.567    -665.448    -206.361
  N      -25.555    -661.481    -207.393
  C      -24.242    -661.722    -207.765
  N      -23.623    -660.739    -208.455
  N      -23.606    -662.819    -207.486
  C      -24.334    -663.711    -206.765
  C      -25.645    -663.582    -206.343
  C      -26.346    -662.347    -206.659
  O      -27.478    -662.064    -206.298
  N      -26.055    -664.690    -205.660
  C      -25.009    -665.500    -205.678
  N      -23.929    -664.929    -206.302
  O      -23.238    -671.401    -207.016
  O      -24.503    -670.802    -204.861
  H      -19.780    -664.696    -204.846
  H      -23.038    -672.235    -206.547
  H      -26.001    -660.603    -207.621
  H      -24.979    -666.492    -205.241
  H      -22.159    -665.171    -207.349
  H      -22.022    -663.989    -204.766
  H      -24.043    -659.837    -208.646
  H      -22.690    -666.040    -203.660
  H      -22.642    -660.856    -208.686
  H      -20.738    -667.457    -205.564
  H      -21.594    -668.872    -203.728
  H      -23.271    -668.439    -204.174
  P      -20.825    -666.701    -201.896
  C      -18.780    -668.283    -201.674
  O      -20.158    -668.166    -201.963
  O      -22.399    -667.008    -201.836
  O      -20.371    -665.823    -200.782
  H      -22.722    -666.987    -200.912
  H      -18.549    -669.355    -201.509
  H      -18.505    -667.735    -200.778
  H      -18.175    -667.940    -202.533
  H      -25.005    -668.619    -208.760
  H      -25.049    -670.334    -208.428
  H      -23.518    -669.535    -208.694

 3  4  5  6  7  8  9  10  11  12  23  26  30  31 0
 6-311+G(2d,p)
 ****
 33  35  36  37  38 0
 6-311+G(2d,p)
 ****
 1  2  13  14  15  16  17  18  19  20  21  22  24  25 0
 3-21G
 ****
 27  28  29  32  34  39  40  41  42  43  44  45  46  47  48  49 0
 3-21G
 ****


