%nproc=1
%NoSave
%Mem=1900MB
#P OB98/GEN NMR

erre ene a

0 1
  C     -162.008    -700.953     920.337
  O     -161.455    -699.903     921.101
  H     -161.910    -701.887     920.900
  H     -161.457    -701.049     919.395
  H     -163.069    -700.771     920.124
  P     -161.832    -698.402     920.674
  C     -164.098    -698.444     921.948
  O     -163.438    -698.310     920.696
  C     -165.292    -697.487     922.038
  O     -166.268    -697.892     921.027
  C     -166.008    -697.503     923.396
  O     -166.444    -696.166     923.698
  C     -167.226    -698.356     923.143
  O     -168.281    -698.092     924.059
  C     -167.550    -697.985     921.696
  N     -172.150    -698.540     919.789
  C     -171.472    -697.388     920.161
  N     -172.130    -696.230     920.091
  N     -170.234    -697.408     920.603
  C     -169.679    -698.639     920.618
  C     -170.242    -699.843     920.261
  C     -171.616    -699.827     919.808
  O     -172.279    -700.798     919.467
  N     -169.367    -700.882     920.475
  C     -168.280    -700.312     920.973
  N     -168.423    -698.946     921.070
  O     -161.477    -698.393     919.107
  O     -161.121    -697.325     921.417
  H     -168.026    -698.447     924.935
  H     -160.568    -698.036     918.983
  H     -173.105    -698.479     919.470
  H     -167.397    -700.831     921.288
  H     -168.037    -697.003     921.614
  H     -166.958    -699.419     923.219
  H     -173.077    -696.128     919.740
  H     -165.380    -697.869     924.231
  H     -171.635    -695.378     920.327
  H     -164.961    -696.479     921.767
  H     -163.391    -698.189     922.752
  H     -164.417    -699.482     922.075
  P     -165.522    -695.241     924.637
  C     -163.912    -694.180     922.869
  O     -164.069    -695.104     923.941
  O     -165.243    -696.181     925.892
  O     -166.168    -693.959     925.032
  H     -165.180    -695.646     926.698
  H     -162.901    -694.208     922.520
  H     -164.144    -693.193     923.212
  H     -164.573    -694.445     922.070

 6  7  8  9  10  11  12  13  14  15  26  29  33  34 0
 6-311+G(2d,p)
 ****
 36  38  39  40  41 0
 6-311+G(2d,p)
 ****
 1  2  3  4  5  16  17  18  19  20  21  22  23  24  25 0
 3-21G
 ****
 27  28  30  31  32  35  37  42  43  44  45  46  47 0
 3-21G
 ****
 48  49 0
 3-21G
 ****


