%nproc=1
%NoSave
%Mem=1900MB
#P OB98/GEN NMR

erre ene a

0 1
  C     -105.184      27.288      36.249
  O     -104.174      27.245      35.257
  P     -102.651      27.204      35.769
  C     -101.914      29.033      34.058
  O     -102.019      28.632      35.414
  C     -101.782      30.556      33.980
  O     -102.899      31.188      34.635
  C     -100.530      31.109      34.645
  O      -99.415      30.994      33.779
  C     -100.945      32.549      34.926
  O     -100.806      33.362      33.746
  C     -102.423      32.384      35.312
  N     -105.126      34.149      39.200
  C     -105.028      34.614      37.902
  N     -105.798      35.677      37.586
  N     -104.249      34.083      36.997
  C     -103.529      33.035      37.459
  C     -103.527      32.492      38.723
  C     -104.431      33.055      39.698
  O     -104.627      32.620      40.829
  N     -102.644      31.448      38.820
  C     -102.138      31.342      37.609
  N     -102.656      32.267      36.739
  O     -101.951      26.199      34.743
  O     -102.471      26.789      37.196
  H     -101.315      34.185      33.863
  H     -101.878      25.305      35.129
  H     -105.756      34.586      39.848
  H     -101.414      30.602      37.305
  H     -103.036      33.220      34.956
  H     -100.328      33.012      35.700
  H     -106.403      36.153      38.237
  H     -100.338      30.590      35.592
  H     -105.736      36.036      36.641
  H     -101.812      30.841      32.921
  H     -102.812      28.721      33.519
  H     -101.043      28.547      33.606
  P      -97.955      31.063      34.438
  C      -97.569      33.339      33.251
  O      -97.515      32.602      34.457
  O      -97.015      30.408      33.319
  O      -97.829      30.345      35.740
  H      -96.303      29.897      33.748
  H      -97.763      34.387      33.488
  H      -98.356      32.972      32.586
  H      -96.604      33.263      32.742
  H     -106.145      27.312      35.779
  H     -105.058      28.165      36.848
  H     -105.112      26.419      36.869

 3  4  5  6  7  8  9  10  11  12  23  26  30  31 0
 6-311+G(2d,p)
 ****
 33  35  36  37  38 0
 6-311+G(2d,p)
 ****
 1  2  13  14  15  16  17  18  19  20  21  22  24  25 0
 3-21G
 ****
 27  28  29  32  34  39  40  41  42  43  44  45  46  47  48  49 0
 3-21G
 ****


