%nproc=1
%NoSave
%Mem=1900MB
#P OB98/GEN NMR

erre ene a

0 1
  C     -269.818     322.435       7.315
  O     -271.129     322.949       7.099
  P     -272.118     322.138       6.132
  C     -274.644     322.623       6.756
  O     -273.484     321.826       6.894
  C     -274.729     323.599       7.935
  O     -273.554     324.442       7.977
  C     -275.937     324.532       7.864
  O     -277.092     323.943       8.439
  C     -275.441     325.751       8.610
  O     -275.491     325.527      10.029
  C     -273.977     325.830       8.126
  N     -273.696     326.542       6.861
  C     -273.604     327.933       6.856
  O     -273.733     328.639       7.854
  N     -273.327     328.516       5.645
  C     -272.973     327.862       4.501
  O     -272.679     328.437       3.459
  C     -272.944     326.400       4.593
  C     -273.313     325.818       5.739
  O     -271.423     320.706       5.994
  O     -272.341     322.786       4.801
  H     -276.431     325.515      10.284
  H     -271.141     320.553       5.072
  H     -273.320     329.518       5.610
  H     -272.627     325.843       3.723
  H     -273.297     324.734       5.821
  H     -273.336     326.282       8.894
  H     -276.073     326.617       8.419
  H     -276.125     324.827       6.824
  H     -274.764     323.020       8.867
  H     -275.541     322.000       6.722
  H     -274.603     323.172       5.809
  P     -277.781     322.678       7.732
  C     -278.925     321.512       9.709
  O     -277.801     321.528       8.844
  O     -277.232     322.288       6.408
  O     -279.326     323.102       7.640
  H     -279.531     323.485       6.755
  H     -278.898     320.595      10.304
  H     -279.854     321.533       9.131
  H     -278.894     322.370      10.380
  H     -269.285     323.084       7.978
  H     -269.300     322.376       6.381
  H     -269.884     321.459       7.748

 3  4  5  6  7  8  9  10  11  12  13  23  28  29  30  31  32 0
 6-311+G(2d,p)
 ****
 33  34 0
 6-311+G(2d,p)
 ****
 1  2  14  15  16  17  18  19  20  21  22  24  25  26  27 0
 3-21G
 ****
 35  36  37  38  39  40  41  42  43  44  45 0
 3-21G
 ****


