%nproc=1
%NoSave
%Mem=1900MB
#P OB98/GEN NMR

erre ene a

0 1
  C      -29.875     378.599     428.269
  O      -30.481     377.755     429.219
  P      -31.996     377.906     429.708
  C      -31.421     379.382     431.790
  O      -31.992     378.182     431.291
  C      -32.098     379.810     433.102
  O      -31.336     380.902     433.683
  C      -33.527     380.333     432.847
  O      -34.483     379.908     433.810
  C      -33.312     381.835     432.697
  O      -34.485     382.607     432.896
  C      -32.170     382.097     433.681
  N      -29.870     386.216     435.555
  C      -30.420     385.145     436.231
  N      -30.526     385.280     437.573
  N      -30.851     384.058     435.640
  C      -30.785     384.121     434.289
  C      -30.259     385.125     433.513
  C      -29.754     386.309     434.181
  O      -29.356     387.325     433.609
  N      -30.420     384.870     432.166
  C      -31.068     383.727     432.138
  N      -31.340     383.244     433.397
  O      -32.980     376.925     429.167
  O      -32.383     379.361     429.115
  H      -34.624     382.687     433.856
  H      -33.333     379.330     428.869
  H      -29.633     387.065     436.062
  H      -31.391     383.217     431.225
  H      -32.546     382.230     434.699
  H      -32.981     382.023     431.661
  H      -30.342     386.159     438.036
  H      -33.921     379.934     431.900
  H      -31.146     384.628     438.058
  H      -32.085     378.978     433.813
  H      -31.566     380.141     431.022
  H      -30.337     379.258     431.939
  P      -35.832     379.090     433.578
  C      -36.859     381.100     434.807
  O      -36.979     379.719     434.495
  O      -35.577     377.663     434.254
  O      -36.219     378.911     432.137
  H      -35.967     376.958     433.709
  H      -37.523     381.333     435.644
  H      -37.157     381.699     433.944
  H      -35.828     381.344     435.090
  H      -28.862     378.292     428.114
  H      -29.891     379.608     428.626
  H      -30.411     378.539     427.345

 3  4  5  6  7  8  9  10  11  12  23  26  30  31 0
 6-311+G(2d,p)
 ****
 33  35  36  37  38 0
 6-311+G(2d,p)
 ****
 1  2  13  14  15  16  17  18  19  20  21  22  24  25 0
 3-21G
 ****
 27  28  29  32  34  39  40  41  42  43  44  45  46  47  48  49 0
 3-21G
 ****


