%nproc=1
%NoSave
%Mem=1900MB
#P OB98/GEN NMR

erre ene a

0 1
  C     -898.090    -117.071     346.037
  O     -897.470    -116.929     347.327
  P     -897.350    -115.497     348.054
  C     -896.630    -116.103     350.451
  O     -896.220    -115.593     349.195
  C     -895.680    -115.658     351.582
  O     -894.440    -116.385     351.530
  C     -895.310    -114.180     351.534
  O     -896.360    -113.391     352.061
  C     -894.010    -114.189     352.369
  O     -894.330    -114.174     353.773
  C     -893.380    -115.520     351.967
  N     -888.840    -113.488     350.771
  C     -889.560    -113.467     351.901
  N     -890.760    -114.019     352.155
  C     -891.210    -114.684     351.052
  C     -890.590    -114.785     349.806
  C     -889.350    -114.145     349.692
  N     -888.610    -114.147     348.520
  N     -891.350    -115.497     348.948
  C     -892.420    -115.857     349.639
  N     -892.370    -115.393     350.927
  O     -898.650    -114.932     348.534
  O     -896.700    -114.537     346.949
  H     -894.800    -113.340     353.953
  H     -896.970    -113.610     347.110
  H     -889.110    -112.928     352.735
  H     -893.250    -116.458     349.267
  H     -892.890    -116.009     352.827
  H     -893.390    -113.305     352.178
  H     -895.070    -113.887     350.505
  H     -896.160    -115.908     352.545
  H     -896.630    -117.202     350.402
  H     -887.740    -113.637     348.492
  H     -888.980    -114.602     347.701
  H     -897.640    -115.767     350.668
  P     -896.990    -112.208     351.156
  C     -899.000    -113.187     349.924
  O     -898.560    -112.484     351.068
  O     -896.310    -111.942     349.859
  O     -896.910    -110.921     352.110
  H     -896.830    -110.115     351.582
  H     -899.050    -112.520     349.057
  H     -900.000    -113.602     350.132
  H     -898.320    -114.018     349.704
  H     -898.064    -118.099     345.740
  H     -897.561    -116.479     345.320
  H     -899.106    -116.741     346.092

 3  4  5  6  7  8  9  10  11  12  22  25  29  30  31  32 0
 6-311+G(2d,p)
 ****
 33  36  37 0
 6-311+G(2d,p)
 ****
 1  2  13  14  15  16  17  18  19  20  21  23  24  26 0
 3-21G
 ****
 27  28  34  35  38  39  40  41  42  43  44  45  46  47  48 0
 3-21G
 ****


