%nproc=1
%NoSave
%Mem=1900MB
#P OB98/GEN NMR

erre ene a

0 1
  C      160.732    -899.210     722.647
  O      161.194    -898.070     721.938
  P      162.472    -898.230     720.969
  C      163.873    -896.740     722.502
  O      163.801    -897.990     721.825
  C      165.225    -896.610     723.217
  O      166.311    -896.450     722.286
  C      165.296    -895.390     724.128
  O      164.569    -895.590     725.317
  C      166.806    -895.260     724.330
  O      167.289    -896.160     725.344
  C      167.360    -895.700     722.935
  N      167.811    -894.600     722.111
  C      169.076    -894.090     722.421
  O      169.732    -894.560     723.356
  N      169.566    -893.060     721.645
  C      168.860    -892.560     720.685
  N      169.385    -891.550     719.971
  C      167.514    -893.060     720.360
  C      167.052    -894.070     721.089
  O      162.387    -897.490     719.647
  O      162.506    -899.840     720.694
  H      167.021    -895.760     726.192
  H      162.875    -900.000     719.810
  H      166.946    -892.620     719.540
  H      166.059    -894.480     720.931
  H      168.205    -896.390     723.057
  H      167.099    -894.260     724.617
  H      164.930    -894.510     723.612
  H      165.396    -897.520     723.811
  H      170.304    -891.200     720.224
  H      163.060    -896.670     723.228
  H      168.932    -891.130     719.171
  H      163.735    -895.930     721.788
  P      163.165    -894.840     725.454
  C      163.819    -893.370     727.489
  O      163.434    -893.430     726.113
  O      162.417    -895.680     726.618
  O      162.335    -894.810     724.197
  H      161.467    -895.670     726.454
  H      164.272    -892.380     727.678
  H      164.592    -894.130     727.698
  H      162.976    -893.510     728.133
  H      159.884    -898.941     723.241
  H      161.512    -899.575     723.283
  H      160.452    -899.973     721.951

 3  4  5  6  7  8  9  10  11  12  13  23  27  28  29  30  32 0
 6-311+G(2d,p)
 ****
 34  35 0
 6-311+G(2d,p)
 ****
 1  2  14  15  16  17  18  19  20  21  22  24  25  26 0
 3-21G
 ****
 31  33  36  37  38  39  40  41  42  43  44  45  46 0
 3-21G
 ****


