%nproc=1
%NoSave
%Mem=1900MB
#P OB98/GEN NMR

erre ene a

0 1
  C       28.587    -888.950     448.348
  O       27.741    -889.280     447.271
  H       28.281    -887.970     448.743
  H       29.628    -888.870     448.006
  H       28.509    -889.690     449.141
  P       28.051    -890.670     446.520
  C       25.615    -891.430     446.867
  O       26.985    -891.700     447.136
  C       24.715    -892.420     447.623
  O       24.772    -893.700     446.947
  C       25.137    -892.640     449.076
  O       23.979    -892.770     449.895
  C       25.883    -893.960     449.037
  O       25.864    -894.630     450.293
  C       25.148    -894.700     447.918
  N       27.956    -898.860     448.836
  C       27.118    -898.140     449.624
  N       26.400    -897.050     449.283
  C       26.565    -896.750     447.986
  C       27.379    -897.380     447.073
  C       28.108    -898.490     447.544
  N       28.981    -899.210     446.765
  N       27.313    -896.750     445.833
  C       26.459    -895.760     446.012
  N       25.992    -895.710     447.294
  O       29.473    -891.120     446.558
  O       27.458    -890.390     445.060
  H       26.458    -895.410     450.244
  H       26.590    -889.950     445.107
  H       27.020    -898.470     450.650
  H       26.150    -895.050     445.249
  H       24.238    -895.200     448.268
  H       26.935    -893.790     448.765
  H       25.770    -891.830     449.456
  H       23.674    -892.060     447.555
  H       25.417    -891.510     445.791
  H       29.452    -900.000     447.185
  H       29.093    -898.960     445.788
  H       25.406    -890.410     447.189
  P       24.054    -892.250     451.413
  C       21.887    -890.910     451.002
  O       23.211    -890.890     451.543
  O       25.413    -892.220     452.022
  O       23.119    -893.300     452.178
  H       23.495    -893.510     453.053
  H       21.428    -889.954     451.147
  H       21.310    -891.662     451.499
  H       21.933    -891.129     449.956

 6  7  8  9  10  11  12  13  14  15  25  28  32  33  34  35 0
 6-311+G(2d,p)
 ****
 36  39  40 0
 6-311+G(2d,p)
 ****
 1  2  3  4  5  16  17  18  19  20  21  22  23  24 0
 3-21G
 ****
 26  27  29  30  31  37  38  41  42  43  44  45  46  47 0
 3-21G
 ****
 48 0
 3-21G
 ****


