%nproc=1
%NoSave
%Mem=1900MB
#P OB98/GEN NMR

erre ene a

0 1
  C      419.796    -122.782     124.002
  O      420.401    -122.748     122.700
  P      420.305    -121.402     121.826
  C      422.318    -122.365     120.461
  O      421.111    -121.617     120.458
  C      422.417    -123.222     119.194
  O      421.367    -124.217     119.172
  C      422.250    -122.442     117.896
  O      423.421    -121.719     117.559
  C      421.927    -123.557     116.913
  O      423.124    -124.206     116.454
  C      421.090    -124.519     117.790
  N      419.661    -124.442     117.500
  C      419.026    -125.644     117.199
  O      419.615    -126.718     117.115
  N      417.678    -125.560     116.967
  C      416.939    -124.411     116.933
  O      415.734    -124.402     116.699
  C      417.680    -123.166     117.179
  C      418.988    -123.239     117.437
  O      421.278    -120.415     122.631
  O      418.939    -120.812     121.696
  H      422.846    -124.853     115.772
  H      420.990    -119.491     122.496
  H      417.189    -126.421     116.778
  H      417.137    -122.234     117.137
  H      419.552    -122.327     117.622
  H      421.419    -125.551     117.637
  H      421.399    -123.197     116.027
  H      421.389    -121.770     117.971
  H      423.385    -123.747     119.210
  H      422.335    -123.020     121.335
  H      423.166    -121.673     120.522
  P      423.324    -120.114     117.626
  C      425.905    -120.236     117.203
  O      424.676    -119.582     116.950
  O      423.516    -119.866     119.194
  O      422.047    -119.579     117.062
  H      424.116    -120.516     119.601
  H      425.765    -121.311     117.338
  H      426.362    -119.803     118.099
  H      426.569    -120.069     116.349
  H      419.952    -123.744     124.443
  H      418.746    -122.597     123.912
  H      420.239    -122.030     124.621

 3  4  5  6  7  8  9  10  11  12  13  23  28  29  30  31  32 0
 6-311+G(2d,p)
 ****
 33  34 0
 6-311+G(2d,p)
 ****
 1  2  14  15  16  17  18  19  20  21  22  24  25  26 0
 3-21G
 ****
 27  35  36  37  38  39  40  41  42  43  44  45 0
 3-21G
 ****


