%nproc=1
%NoSave
%Mem=1900MB
#P OB98/GEN NMR

erre ene a

0 1
  C     -508.942    -177.351     115.716
  O     -509.604    -176.105     115.770
  H     -509.058    -177.769     114.717
  H     -509.385    -178.039     116.442
  H     -507.875    -177.229     115.926
  P     -509.457    -175.259     117.128
  C     -511.806    -176.027     117.960
  O     -510.410    -175.972     118.209
  C     -512.460    -177.061     118.888
  O     -512.366    -176.582     120.257
  C     -513.943    -177.296     118.584
  O     -514.250    -178.683     118.793
  C     -514.656    -176.447     119.626
  O     -515.984    -176.875     119.903
  C     -513.697    -176.596     120.814
  N     -513.861    -175.521     121.804
  C     -514.799    -175.717     122.812
  O     -515.450    -176.749     122.977
  N     -514.984    -174.649     123.657
  C     -514.365    -173.437     123.577
  O     -514.587    -172.519     124.348
  C     -513.384    -173.287     122.482
  C     -513.185    -174.321     121.659
  O     -510.239    -173.898     116.796
  O     -508.061    -175.018     117.595
  H     -509.633    -173.234     116.424
  H     -516.314    -176.351     120.667
  H     -515.666    -174.772     124.400
  H     -512.876    -172.340     122.385
  H     -512.481    -174.236     120.834
  H     -513.841    -177.568     121.302
  H     -514.699    -175.400     119.291
  H     -514.222    -177.009     117.560
  H     -511.889    -177.994     118.832
  H     -511.980    -176.314     116.927
  H     -512.239    -175.036     118.135
  P     -514.900    -179.485     117.560
  C     -517.438    -179.001     117.978
  O     -516.271    -178.730     117.209
  O     -515.358    -180.841     118.272
  O     -513.947    -179.663     116.417
  H     -515.694    -180.709     119.179
  H     -518.253    -178.414     117.608
  H     -517.256    -178.752     119.003
  H     -517.683    -180.040     117.901

 6  7  8  9  10  11  12  13  14  15  16  27  31  32  33  34  35 0
 6-311+G(2d,p)
 ****
 36  37 0
 6-311+G(2d,p)
 ****
 1  2  3  4  5  17  18  19  20  21  22  23  24  25 0
 3-21G
 ****
 26  28  29  30  38  39  40  41  42  43  44  45 0
 3-21G
 ****


