%nproc=1
%NoSave
%Mem=1900MB
#P OB98/GEN NMR

erre ene a

0 1
  C      120.478     143.030    -218.346
  O      121.158     142.717    -219.545
  H      120.263     142.103    -217.811
  H      119.534     143.530    -218.573
  H      121.094     143.670    -217.707
  P      121.778     143.938    -220.378
  C      124.226     143.335    -219.735
  O      123.276     143.505    -220.777
  C      125.340     142.394    -220.196
  O      124.816     141.034    -220.219
  C      125.881     142.702    -221.598
  O      127.287     142.431    -221.610
  C      125.171     141.684    -222.471
  O      125.845     141.397    -223.689
  C      125.107     140.482    -221.519
  N      124.095     139.506    -221.916
  C      124.539     138.245    -222.305
  O      125.709     137.868    -222.260
  N      123.567     137.395    -222.767
  C      122.240     137.679    -222.895
  O      121.422     136.878    -223.336
  C      121.831     139.029    -222.476
  C      122.762     139.866    -222.015
  O      122.003     145.060    -219.261
  O      120.950     144.423    -221.521
  H      121.207     145.619    -219.173
  H      125.253     140.821    -224.221
  H      123.874     136.475    -223.054
  H      120.788     139.294    -222.574
  H      122.501     140.877    -221.719
  H      126.085     139.994    -221.457
  H      124.163     142.040    -222.718
  H      125.698     143.728    -221.932
  H      126.147     142.412    -219.451
  H      123.732     142.905    -218.860
  H      124.641     144.312    -219.462
  P      128.238     143.505    -222.329
  C      130.276     143.420    -220.681
  O      129.738     143.076    -221.951
  O      127.960     144.806    -221.440
  O      127.952     143.659    -223.783
  H      127.811     144.602    -220.502
  H      131.279     143.054    -220.608
  H      129.679     142.980    -219.910
  H      130.275     144.484    -220.570

 6  7  8  9  10  11  12  13  14  15  16  27  31  32  33  34  35 0
 6-311+G(2d,p)
 ****
 36  37 0
 6-311+G(2d,p)
 ****
 1  2  3  4  5  17  18  19  20  21  22  23  24  25 0
 3-21G
 ****
 26  28  29  30  38  39  40  41  42  43  44  45 0
 3-21G
 ****


