%nproc=1
%NoSave
%Mem=1900MB
#P OB98/GEN NMR

erre ene a

0 1
  C     -192.600    -516.690     403.538
  O     -192.298    -517.069     402.187
  P     -193.166    -516.587     400.927
  C     -192.764    -515.690     398.538
  O     -192.196    -516.329     399.681
  C     -191.694    -515.270     397.527
  O     -190.973    -514.116     398.003
  C     -190.631    -516.327     397.251
  O     -191.134    -517.350     396.404
  C     -189.526    -515.478     396.639
  O     -189.776    -515.238     395.238
  C     -189.648    -514.169     397.442
  N     -188.624    -514.051     398.477
  C     -187.568    -513.177     398.225
  O     -187.496    -512.579     397.136
  N     -186.599    -513.006     399.182
  C     -186.652    -513.714     400.273
  N     -185.670    -513.501     401.199
  C     -187.697    -514.717     400.545
  C     -188.643    -514.831     399.616
  O     -194.085    -515.445     401.231
  O     -194.004    -517.879     400.489
  H     -188.993    -514.748     394.899
  H     -194.855    -517.589     400.099
  H     -187.677    -515.303     401.449
  H     -189.453    -515.540     399.736
  H     -189.565    -513.294     396.775
  H     -188.540    -515.946     396.710
  H     -190.279    -516.759     398.201
  H     -192.206    -514.990     396.595
  H     -184.968    -512.795     400.982
  H     -193.305    -514.796     398.886
  H     -185.611    -513.995     402.076
  H     -193.482    -516.374     398.074
  P     -191.088    -518.877     396.891
  C     -193.002    -520.558     397.201
  O     -192.415    -519.595     396.351
  O     -190.805    -519.083     398.340
  O     -189.940    -519.534     395.986
  H     -189.499    -520.239     396.490
  H     -194.060    -520.672     396.934
  H     -192.927    -520.257     398.251
  H     -192.497    -521.522     397.070
  H     -191.885    -517.131     404.201
  H     -193.581    -517.032     403.793
  H     -192.559    -515.625     403.627

 3  4  5  6  7  8  9  10  11  12  13  23  27  28  29  30  32 0
 6-311+G(2d,p)
 ****
 34  35 0
 6-311+G(2d,p)
 ****
 1  2  14  15  16  17  18  19  20  21  22  24  25  26 0
 3-21G
 ****
 31  33  36  37  38  39  40  41  42  43  44  45  46 0
 3-21G
 ****


