%nproc=1
%NoSave
%Mem=1900MB
#P OB98/GEN NMR

erre ene a

0 1
  C       50.808     -30.273    -139.888
  O       52.159     -30.593    -139.628
  H       50.588     -29.295    -139.454
  H       50.152     -31.018    -139.430
  H       50.625     -30.232    -140.965
  P       52.727     -31.943    -140.280
  C       54.629     -32.714    -138.677
  O       54.277     -32.026    -139.867
  C       56.142     -32.931    -138.632
  O       56.482     -34.011    -139.543
  C       56.944     -31.698    -139.062
  O       58.134     -31.617    -138.272
  C       57.305     -32.003    -140.505
  O       58.452     -31.305    -140.969
  C       57.499     -33.522    -140.442
  N       57.382     -34.158    -141.752
  C       58.393     -33.913    -142.675
  O       59.412     -33.262    -142.444
  N       58.199     -34.453    -143.921
  C       57.115     -35.171    -144.328
  O       56.989     -35.609    -145.466
  C       56.077     -35.389    -143.311
  C       56.255     -34.880    -142.091
  O       52.785     -31.603    -141.843
  O       51.945     -33.179    -139.990
  H       51.945     -31.850    -142.277
  H       58.333     -30.355    -140.759
  H       58.925     -34.286    -144.602
  H       55.196     -35.947    -143.601
  H       55.501     -35.010    -141.322
  H       58.472     -33.764    -139.998
  H       56.465     -31.748    -141.162
  H       56.379     -30.770    -138.972
  H       56.425     -33.257    -137.625
  H       54.124     -33.685    -138.661
  H       54.304     -32.128    -137.811
  P       57.976     -31.149    -136.744
  C       59.515     -29.039    -136.868
  O       59.326     -30.358    -136.385
  O       58.111     -32.540    -135.971
  O       56.708     -30.401    -136.493
  H       58.755     -33.146    -136.374
  H       60.462     -28.669    -136.534
  H       58.735     -28.408    -136.497
  H       59.491     -29.044    -137.938

 6  7  8  9  10  11  12  13  14  15  16  27  31  32  33  34  35 0
 6-311+G(2d,p)
 ****
 36  37 0
 6-311+G(2d,p)
 ****
 1  2  3  4  5  17  18  19  20  21  22  23  24  25 0
 3-21G
 ****
 26  28  29  30  38  39  40  41  42  43  44  45 0
 3-21G
 ****


