%nproc=1
%NoSave
%Mem=1900MB
#P OB98/GEN NMR

erre ene a

0 1
  C     -893.030     425.870    -859.655
  O     -892.980     427.217    -860.090
  H     -894.080     425.562    -859.575
  H     -892.580     425.769    -858.675
  H     -892.530     425.202    -860.364
  P     -891.540     427.814    -860.427
  C     -892.170     429.177    -862.544
  O     -891.490     428.048    -862.021
  C     -893.290     428.711    -863.506
  O     -894.310     427.979    -862.755
  C     -894.000     429.881    -864.224
  O     -894.300     429.471    -865.571
  C     -895.300     430.041    -863.451
  O     -896.340     430.629    -864.233
  C     -895.570     428.585    -863.010
  N     -896.430     428.546    -861.827
  C     -897.780     428.879    -862.022
  O     -898.180     429.175    -863.150
  N     -898.620     428.890    -860.948
  C     -898.130     428.714    -859.755
  N     -899.030     428.775    -858.715
  C     -896.710     428.433    -859.481
  C     -895.930     428.365    -860.543
  O     -890.550     426.574    -860.205
  O     -891.130     429.007    -859.611
  H     -895.960     431.428    -864.678
  H     -889.670     426.863    -859.913
  H     -896.360     428.306    -858.456
  H     -894.860     428.170    -860.448
  H     -896.040     428.018    -863.814
  H     -895.120     430.676    -862.583
  H     -893.390     430.787    -864.235
  H     -892.860     428.009    -864.232
  H     -900.000     428.982    -858.934
  H     -891.480     429.785    -863.100
  H     -898.750     428.687    -857.737
  H     -892.590     429.759    -861.725
  P     -893.030     429.026    -866.475
  C     -893.350     426.580    -867.397
  O     -892.850     427.422    -866.328
  O     -891.770     429.619    -865.670
  O     -893.110     429.545    -867.874
  H     -891.390     430.377    -866.176
  H     -893.161     425.554    -867.161
  H     -892.855     426.833    -868.311
  H     -894.403     426.732    -867.508

 6  7  8  9  10  11  12  13  14  15  16  26  30  31  32  33  35 0
 6-311+G(2d,p)
 ****
 37  38 0
 6-311+G(2d,p)
 ****
 1  2  3  4  5  17  18  19  20  21  22  23  24  25 0
 3-21G
 ****
 27  28  29  34  36  39  40  41  42  43  44  45  46 0
 3-21G
 ****


