%nproc=1
%NoSave
%Mem=1900MB
#P OB98/GEN NMR

erre ene a

0 1
  C     -209.225     -69.740     129.215
  O     -209.300     -68.467     129.834
  P     -210.743     -67.803     130.041
  C     -212.573     -66.760     128.515
  O     -211.291     -67.364     128.598
  C     -213.233     -67.096     127.174
  O     -213.431     -68.539     127.081
  C     -214.602     -66.431     126.968
  O     -214.734     -66.141     125.568
  C     -215.565     -67.540     127.350
  O     -216.875     -67.344     126.837
  C     -214.825     -68.750     126.773
  N     -215.308     -70.021     127.312
  C     -216.234     -70.728     126.548
  O     -216.662     -70.344     125.462
  N     -216.715     -71.882     127.109
  C     -216.435     -72.343     128.363
  O     -216.989     -73.321     128.849
  C     -215.451     -71.555     129.125
  C     -214.942     -70.452     128.574
  O     -210.406     -66.412     130.761
  O     -211.699     -68.627     130.839
  H     -217.171     -66.462     127.125
  H     -210.563     -66.479     131.721
  H     -217.375     -72.412     126.566
  H     -215.192     -71.903     130.116
  H     -214.230     -69.840     129.120
  H     -214.913     -68.761     125.678
  H     -215.639     -67.598     128.442
  H     -214.742     -65.520     127.560
  H     -212.544     -66.810     126.366
  H     -212.467     -65.679     128.600
  H     -213.198     -67.107     129.346
  P     -215.990     -65.253     125.100
  C     -218.575     -65.523     125.385
  O     -217.301     -66.131     125.372
  O     -215.815     -65.303     123.507
  O     -215.988     -63.866     125.660
  H     -215.586     -66.190     123.183
  H     -218.636     -64.698     124.668
  H     -218.784     -65.143     126.387
  H     -219.328     -66.271     125.126
  H     -208.201     -70.045     129.150
  H     -209.644     -69.684     128.232
  H     -209.773     -70.452     129.796

 3  4  5  6  7  8  9  10  11  12  13  23  28  29  30  31  32 0
 6-311+G(2d,p)
 ****
 33  34 0
 6-311+G(2d,p)
 ****
 1  2  14  15  16  17  18  19  20  21  22  24  25  26 0
 3-21G
 ****
 27  35  36  37  38  39  40  41  42  43  44  45 0
 3-21G
 ****


