%nproc=1
%NoSave
%Mem=1900MB
#P OB98/GEN NMR

erre ene a

0 1
  C     1465.142     326.796     685.894
  O     1465.015     325.765     684.926
  P     1465.953     325.705     683.651
  C     1467.008     323.296     683.816
  O     1467.151     324.693     683.948
  C     1467.703     322.841     682.510
  O     1469.038     323.371     682.433
  C     1467.782     321.319     682.417
  O     1466.675     320.793     681.680
  C     1469.131     321.096     681.722
  O     1468.991     321.286     680.307
  C     1469.968     322.249     682.333
  N     1470.589     322.060     683.667
  C     1471.484     321.009     683.856
  O     1471.818     320.229     682.977
  N     1471.937     320.850     685.164
  C     1471.641     321.667     686.223
  O     1471.880     321.376     687.385
  C     1470.919     322.904     685.899
  C     1470.399     323.015     684.646
  O     1466.668     327.126     683.659
  O     1465.278     325.417     682.341
  H     1469.817     321.019     679.899
  H     1466.239     327.743     683.024
  H     1472.492     320.012     685.327
  H     1470.796     323.642     686.669
  H     1469.849     323.907     684.402
  H     1470.767     322.558     681.639
  H     1469.483     320.085     681.895
  H     1467.832     320.868     683.431
  H     1467.132     323.230     681.663
  H     1465.952     323.042     683.784
  H     1467.467     322.770     684.673
  P     1465.467     320.117     682.467
  C     1463.691     321.978     682.228
  O     1464.632     321.350     683.132
  O     1465.826     319.020     683.402
  O     1464.521     319.585     681.271
  H     1464.685     318.651     681.123
  H     1463.093     322.677     682.863
  H     1463.058     321.253     681.758
  H     1464.258     322.567     681.493
  H     1464.417     326.650     686.668
  H     1464.979     327.745     685.428
  H     1466.125     326.770     686.316

 3  4  5  6  7  8  9  10  11  12  13  23  28  29  30  31  32 0
 6-311+G(2d,p)
 ****
 33  34 0
 6-311+G(2d,p)
 ****
 1  2  14  15  16  17  18  19  20  21  22  24  25  26  27 0
 3-21G
 ****
 35  36  37  38  39  40  41  42  43  44  45 0
 3-21G
 ****


