%nproc=1
%NoSave
%Mem=1900MB
#P OB98/GEN NMR

erre ene a

0 1
  C     -213.141      69.717     178.207
  O     -214.550      69.561     178.238
  P     -215.138      68.089     177.980
  C     -215.777      68.818     175.569
  O     -215.116      67.863     176.390
  C     -216.856      68.158     174.708
  O     -217.616      69.190     174.033
  C     -216.308      67.202     173.646
  O     -217.217      66.104     173.535
  C     -216.367      68.019     172.371
  O     -216.435      67.189     171.213
  C     -217.615      68.882     172.623
  N     -217.620      70.095     171.811
  C     -218.032      69.963     170.480
  O     -218.292      68.848     170.024
  N     -218.089      71.084     169.691
  C     -217.667      72.218     170.154
  N     -217.747      73.299     169.335
  C     -217.109      72.376     171.513
  C     -217.136      71.291     172.284
  O     -216.694      68.264     178.305
  O     -214.504      67.013     178.800
  H     -215.781      66.460     171.321
  H     -217.067      67.441     178.674
  H     -216.736      73.338     171.840
  H     -216.769      71.319     173.303
  H     -218.528      68.314     172.408
  H     -215.473      68.651     172.289
  H     -215.307      66.831     173.884
  H     -217.548      67.628     175.374
  H     -218.119      73.164     168.405
  H     -215.045      69.283     174.902
  H     -217.440      74.225     169.610
  H     -216.211      69.601     176.199
  P     -216.781      64.870     172.605
  C     -218.328      65.912     170.840
  O     -217.050      65.366     171.105
  O     -218.005      63.856     172.831
  O     -215.472      64.206     172.876
  H     -217.829      63.020     172.360
  H     -218.329      66.331     169.830
  H     -218.559      66.707     171.553
  H     -219.087      65.126     170.895
  H     -212.891      70.741     178.393
  H     -212.771      69.429     177.245
  H     -212.697      69.099     178.959

 3  4  5  6  7  8  9  10  11  12  13  21  23  27  28  29  30  32 0
 6-311+G(2d,p)
 ****
 34  35 0
 6-311+G(2d,p)
 ****
 1  2  14  15  16  17  18  19  20  22  24  25  26 0
 3-21G
 ****
 31  33  36  37  38  39  40  41  42  43  44  45  46 0
 3-21G
 ****


