%nproc=1
%NoSave
%Mem=1900MB
#P OB98/GEN NMR

erre ene a

0 1
  C       41.485     112.419     105.942
  O       41.037     111.317     106.709
  H       42.154     113.024     106.559
  H       40.636     113.033     105.634
  H       42.033     112.067     105.065
  P       40.055     110.285     105.969
  C       37.677     110.521     104.972
  O       38.690     111.105     105.781
  C       36.766     111.599     104.392
  O       37.431     112.304     103.329
  C       35.470     111.072     103.793
  O       34.508     110.826     104.804
  C       35.070     112.240     102.906
  O       34.455     113.270     103.706
  C       36.427     112.735     102.371
  N       35.715     113.248      97.314
  C       35.071     113.789      98.369
  N       35.287     113.575      99.686
  C       36.286     112.698      99.869
  C       37.034     112.064      98.887
  C       36.722     112.378      97.555
  N       37.389     111.831      96.480
  N       37.975     111.229      99.453
  C       37.832     111.398     100.753
  N       36.800     112.248     101.056
  O       39.939     108.940     106.597
  O       40.665     110.294     104.487
  H       34.251     114.018     103.113
  H       40.946     111.191     104.239
  H       34.277     114.490      98.126
  H       38.457     110.942     101.511
  H       36.469     113.829     102.320
  H       34.345     111.955     102.143
  H       35.648     110.191     103.167
  H       36.562     112.328     105.187
  H       37.085     109.809     105.558
  H       36.992     111.975      95.564
  H       38.052     111.091      96.659
  H       38.176     109.974     104.166
  P       33.052     110.268     104.430
  C       30.853     111.280     103.567
  O       32.240     111.497     103.795
  O       32.344     109.563     105.534
  O       33.300     109.310     103.176
  H       32.723     108.524     103.229
  H       30.419     112.162     103.144
  H       30.370     111.054     104.495
  H       30.727     110.461     102.890

 6  7  8  9  10  11  12  13  14  15  25  28  32  33  34  35 0
 6-311+G(2d,p)
 ****
 36  39  40 0
 6-311+G(2d,p)
 ****
 1  2  3  4  5  16  17  18  19  20  21  22  23  24 0
 3-21G
 ****
 26  27  29  30  31  37  38  41  42  43  44  45  46  47 0
 3-21G
 ****
 48 0
 3-21G
 ****


