%nproc=1
%NoSave
%Mem=1900MB
#P OB98/GEN NMR

erre ene a

0 1
  C     -550.377    -429.376     331.227
  O     -549.168    -428.683     331.465
  H     -550.184    -430.299     330.666
  H     -550.831    -429.641     332.189
  H     -551.072    -428.737     330.667
  P     -548.298    -428.306     330.174
  C     -547.231    -429.677     328.245
  O     -547.767    -429.694     329.560
  C     -545.722    -429.817     328.291
  O     -545.343    -430.997     329.049
  C     -545.043    -429.984     326.933
  O     -544.913    -428.743     326.249
  C     -543.701    -430.539     327.349
  O     -542.840    -429.470     327.782
  C     -544.054    -431.436     328.548
  N     -541.520    -435.528     326.757
  C     -541.136    -434.245     326.964
  N     -541.867    -433.212     327.428
  C     -543.115    -433.602     327.714
  C     -543.667    -434.871     327.549
  C     -542.799    -435.864     327.037
  N     -543.215    -437.162     326.812
  N     -544.974    -434.900     327.951
  C     -545.234    -433.672     328.358
  N     -544.142    -432.846     328.217
  O     -546.976    -427.640     330.796
  O     -548.964    -427.391     329.201
  H     -542.018    -429.876     328.111
  H     -546.676    -426.928     330.207
  H     -540.107    -434.028     326.722
  H     -546.183    -433.335     328.751
  H     -543.339    -431.318     329.370
  H     -543.176    -431.068     326.549
  H     -545.575    -430.733     326.323
  H     -545.305    -428.940     328.820
  H     -547.490    -428.725     327.759
  H     -542.511    -437.864     326.640
  H     -544.176    -437.407     327.041
  H     -547.673    -430.501     327.672
  P     -544.615    -428.798     324.668
  C     -542.654    -429.685     323.225
  O     -543.162    -429.477     324.535
  O     -544.343    -427.267     324.301
  O     -545.708    -429.395     323.836
  H     -544.542    -427.112     323.358
  H     -541.687    -430.140     323.285
  H     -542.575    -428.745     322.720
  H     -543.317    -430.326     322.683

 6  7  8  9  10  11  12  13  14  15  25  28  32  33  34  35 0
 6-311+G(2d,p)
 ****
 36  39  40 0
 6-311+G(2d,p)
 ****
 1  2  3  4  5  16  17  18  19  20  21  22  23  24 0
 3-21G
 ****
 26  27  29  30  31  37  38  41  42  43  44  45  46  47  48 0
 3-21G
 ****


