%nproc=1
%NoSave
%Mem=1900MB
#P OB98/GEN NMR

erre ene a

0 1
  C      -65.980    1765.025    -687.860
  O      -65.217    1763.830    -687.810
  P      -65.809    1762.540    -687.037
  C      -66.642    1761.066    -688.965
  O      -67.003    1761.931    -687.897
  C      -67.557    1759.845    -689.054
  O      -67.316    1758.946    -687.926
  C      -69.046    1760.144    -689.086
  O      -69.665    1759.171    -689.967
  C      -69.463    1759.920    -687.667
  O      -70.864    1759.734    -687.517
  C      -68.585    1758.693    -687.318
  N      -68.449    1758.490    -685.865
  C      -68.582    1757.203    -685.395
  O      -68.927    1756.292    -686.164
  N      -68.347    1756.949    -684.036
  C      -68.164    1757.961    -683.246
  N      -67.951    1757.691    -681.930
  C      -68.186    1759.377    -683.704
  C      -68.321    1759.555    -685.016
  O      -66.091    1762.772    -685.584
  O      -64.635    1761.450    -687.228
  H      -71.328    1760.558    -687.814
  H      -64.596    1760.896    -686.432
  H      -68.112    1760.191    -682.992
  H      -68.322    1760.545    -685.436
  H      -69.012    1757.779    -687.761
  H      -69.172    1760.777    -687.033
  H      -69.296    1761.155    -689.451
  H      -67.273    1759.265    -689.964
  H      -67.955    1756.720    -681.637
  H      -65.608    1760.756    -688.832
  H      -67.723    1758.423    -681.243
  H      -66.658    1761.638    -689.906
  P      -69.866    1759.551    -691.501
  C      -68.178    1757.742    -692.260
  O      -68.554    1759.103    -692.297
  O      -69.718    1761.160    -691.483
  O      -71.209    1759.181    -692.104
  H      -70.219    1761.516    -692.240
  H      -67.442    1757.582    -693.076
  H      -69.027    1757.076    -692.418
  H      -67.686    1757.515    -691.333
  H      -65.441    1765.770    -688.407
  H      -66.161    1765.374    -686.865
  H      -66.914    1764.832    -688.346

 3  4  5  6  7  8  9  10  11  12  13  23  27  28  29  30  32 0
 6-311+G(2d,p)
 ****
 34  35 0
 6-311+G(2d,p)
 ****
 1  2  14  15  16  17  18  19  20  21  22  24  25  26 0
 3-21G
 ****
 31  33  36  37  38  39  40  41  42  43  44  45  46 0
 3-21G
 ****


