%nproc=1
%NoSave
%Mem=1900MB
#P OB98/GEN NMR

erre ene a

0 1
  C      283.995     534.501     -24.075
  O      284.704     534.208     -22.885
  H      284.689     534.447     -24.917
  H      283.581     535.512     -24.022
  H      283.192     533.775     -24.229
  P      283.832     534.057     -21.544
  C      283.591     531.442     -21.558
  O      282.983     532.710     -21.731
  C      282.538     530.332     -21.570
  O      281.822     530.383     -22.831
  C      283.122     528.927     -21.424
  O      282.208     528.135     -20.661
  C      283.164     528.411     -22.852
  O      283.172     526.988     -22.910
  C      281.913     529.083     -23.446
  N      281.971     529.178     -24.903
  C      281.644     528.027     -25.623
  O      281.339     526.990     -25.031
  N      281.708     528.057     -26.993
  C      282.131     529.125     -27.592
  N      282.196     529.083     -28.951
  C      282.531     530.352     -26.872
  C      282.416     530.312     -25.546
  O      282.748     535.219     -21.730
  O      284.622     534.144     -20.283
  H      284.075     526.675     -22.676
  H      282.369     535.260     -22.622
  H      282.883     531.214     -27.416
  H      282.680     531.173     -24.937
  H      281.010     528.523     -23.174
  H      284.063     528.777     -23.358
  H      284.103     528.922     -20.943
  H      281.807     530.540     -20.780
  H      281.936     528.216     -29.403
  H      284.142     531.411     -20.613
  H      282.560     529.835     -29.518
  H      284.306     531.295     -22.373
  P      282.515     527.846     -19.119
  C      280.927     529.637     -18.137
  O      282.269     529.182     -18.267
  O      283.794     527.133     -18.832
  O      281.262     526.930     -18.678
  H      281.600     526.226     -18.096
  H      280.909     530.530     -17.549
  H      280.339     528.882     -17.658
  H      280.524     529.840     -19.107

 6  7  8  9  10  11  12  13  14  15  16  26  30  31  32  33  35 0
 6-311+G(2d,p)
 ****
 37  38 0
 6-311+G(2d,p)
 ****
 1  2  3  4  5  17  18  19  20  21  22  23  24  25 0
 3-21G
 ****
 27  28  29  34  36  39  40  41  42  43  44  45  46 0
 3-21G
 ****


