%nproc=1
%NoSave
%Mem=1900MB
#P OB98/GEN NMR

erre ene a

0 1
  C      525.747    -204.059     396.562
  O      525.606    -204.927     397.679
  H      526.169    -204.609     395.711
  H      524.763    -203.667     396.285
  H      526.409    -203.222     396.821
  P      526.925    -205.632     398.221
  C      528.070    -203.501     399.154
  O      528.100    -204.538     398.195
  C      529.396    -203.429     399.911
  O      530.401    -202.928     398.983
  C      529.385    -202.504     401.154
  O      529.760    -203.246     402.312
  C      530.459    -201.465     400.860
  O      531.251    -201.145     402.008
  C      531.295    -202.116     399.764
  N      535.019    -198.646     399.672
  C      534.849    -199.725     400.448
  N      533.891    -200.674     400.360
  C      533.071    -200.430     399.311
  C      533.158    -199.375     398.415
  C      534.167    -198.436     398.651
  N      534.326    -197.293     397.879
  N      532.138    -199.454     397.464
  C      531.434    -200.502     397.816
  N      531.957    -201.123     398.940
  O      527.327    -206.642     397.040
  O      526.771    -206.351     399.522
  H      530.635    -200.751     402.660
  H      527.515    -207.533     397.417
  H      535.554    -199.860     401.262
  H      530.515    -200.848     397.345
  H      532.075    -202.780     400.186
  H      529.978    -200.556     400.488
  H      528.400    -202.025     401.312
  H      529.696    -204.440     400.184
  H      527.258    -203.707     399.879
  H      535.026    -196.623     398.163
  H      533.631    -197.082     397.175
  H      527.844    -202.545     398.654
  P      528.561    -203.885     403.182
  C      529.131    -206.419     402.885
  O      528.252    -205.333     402.566
  O      527.277    -203.021     402.722
  O      528.783    -203.846     404.649
  H      526.637    -203.001     403.441
  H      528.789    -207.309     402.399
  H      529.140    -206.571     403.944
  H      530.120    -206.187     402.550

 6  7  8  9  10  11  12  13  14  15  25  28  32  33  34  35 0
 6-311+G(2d,p)
 ****
 36  39  40 0
 6-311+G(2d,p)
 ****
 1  2  3  4  5  16  17  18  19  20  21  22  23  24 0
 3-21G
 ****
 26  27  29  30  31  37  38  41  42  43  44  45  46  47  48 0
 3-21G
 ****


