%nproc=1
%NoSave
%Mem=1900MB
#P OB98/GEN NMR

erre ene a

0 1
  C     -334.867    -722.956    -272.544
  O     -335.912    -723.913    -272.518
  P     -337.073    -723.748    -271.433
  C     -338.722    -724.700    -273.203
  O     -338.254    -724.760    -271.864
  C     -339.919    -725.640    -273.389
  O     -340.912    -725.382    -272.381
  C     -340.639    -725.458    -274.720
  O     -339.982    -726.144    -275.784
  C     -341.972    -726.117    -274.406
  O     -341.865    -727.553    -274.508
  C     -342.217    -725.697    -272.958
  N     -346.918    -723.970    -273.744
  C     -346.419    -725.252    -273.779
  N     -347.308    -726.218    -274.148
  N     -345.203    -725.591    -273.498
  C     -344.426    -724.524    -273.158
  C     -344.783    -723.178    -273.096
  C     -346.150    -722.836    -273.417
  O     -346.620    -721.703    -273.460
  N     -343.729    -722.392    -272.700
  C     -342.731    -723.236    -272.542
  N     -343.082    -724.529    -272.850
  O     -337.686    -722.307    -271.746
  O     -336.624    -723.881    -270.009
  H     -341.717    -727.767    -275.445
  H     -338.216    -721.987    -270.990
  H     -347.875    -723.766    -273.982
  H     -341.736    -722.956    -272.230
  H     -342.661    -726.503    -272.358
  H     -342.769    -725.826    -275.099
  H     -348.252    -726.029    -274.446
  H     -340.810    -724.416    -274.958
  H     -346.966    -727.181    -274.230
  H     -339.565    -726.666    -273.269
  H     -337.921    -724.994    -273.888
  H     -339.014    -723.658    -273.442
  P     -340.045    -725.469    -277.244
  C     -337.521    -725.986    -277.532
  O     -338.825    -726.088    -278.064
  O     -339.607    -723.954    -276.951
  O     -341.393    -725.556    -277.888
  H     -339.987    -723.355    -277.615
  H     -336.862    -726.682    -278.057
  H     -337.523    -726.253    -276.452
  H     -337.136    -724.967    -277.655
  H     -334.175    -723.205    -273.321
  H     -334.361    -722.955    -271.601
  H     -335.277    -721.985    -272.729

 3  4  5  6  7  8  9  10  11  12  23  26  30  31 0
 6-311+G(2d,p)
 ****
 33  35  36  37  38 0
 6-311+G(2d,p)
 ****
 1  2  13  14  15  16  17  18  19  20  21  22  24  25 0
 3-21G
 ****
 27  28  29  32  34  39  40  41  42  43  44  45  46  47  48  49 0
 3-21G
 ****


