%nproc=1
%NoSave
%Mem=1900MB
#P OB98/GEN NMR

erre ene a

0 1
  C     -781.705     806.192    -112.439
  O     -783.024     806.221    -112.970
  P     -784.237     806.251    -111.932
  C     -784.106     803.801    -111.106
  O     -783.883     805.167    -110.804
  C     -784.889     803.120    -109.986
  O     -784.291     803.421    -108.717
  C     -786.351     803.577    -109.873
  O     -787.184     802.920    -110.813
  C     -786.672     803.144    -108.450
  O     -787.008     801.743    -108.433
  C     -785.339     803.378    -107.714
  N     -786.908     805.767    -103.524
  C     -787.121     804.467    -103.938
  N     -787.845     803.679    -103.108
  N     -786.693     803.988    -105.067
  C     -785.953     804.873    -105.775
  C     -785.657     806.177    -105.468
  C     -786.201     806.719    -104.244
  O     -786.087     807.882    -103.856
  N     -784.864     806.748    -106.437
  C     -784.643     805.783    -107.298
  N     -785.301     804.621    -106.955
  O     -785.431     805.557    -112.746
  O     -784.616     807.614    -111.442
  H     -787.852     801.643    -108.907
  H     -786.294     805.864    -112.396
  H     -787.245     806.086    -102.625
  H     -784.015     805.877    -108.179
  H     -785.103     802.557    -107.034
  H     -787.533     803.671    -108.027
  H     -788.104     803.958    -102.172
  H     -786.422     804.671    -109.948
  H     -787.999     802.719    -103.374
  H     -784.836     802.028    -110.136
  H     -783.149     803.285    -111.225
  H     -784.657     803.729    -112.055
  P     -788.148     803.852    -111.695
  C     -790.260     803.195    -110.325
  O     -789.374     804.222    -110.727
  O     -788.783     802.832    -112.756
  O     -787.452     805.005    -112.354
  H     -789.047     803.304    -113.553
  H     -789.730     802.247    -110.179
  H     -791.032     803.062    -111.087
  H     -790.735     803.483    -109.377
  H     -780.998     806.174    -113.242
  H     -781.582     805.317    -111.836
  H     -781.542     807.063    -111.840

 3  4  5  6  7  8  9  10  11  12  23  26  30  31  33  0
 6-311+G(2d,p)
 ****
 35  36  37  38 0
 6-311+G(2d,p)
 ****
 1  2  13  14  15  16  17  18  19  20  21  22  24  25  27  28  29 0
 3-21G
 ****
 32  34  39  40  41  42  43  44  45  46  47  48  49 0
 3-21G
 ****


