%nproc=1
%NoSave
%Mem=1900MB
#P OB98/GEN NMR

erre ene a

0 1
  C      117.341    -249.121     163.382
  O      117.060    -247.992     164.212
  P      116.088    -246.878     163.588
  C      113.725    -247.110     162.539
  O      114.590    -247.456     163.609
  C      112.401    -247.871     162.645
  O      112.593    -249.296     162.709
  C      111.592    -247.504     163.881
  O      110.906    -246.281     163.668
  C      110.658    -248.700     164.008
  O      109.499    -248.552     163.159
  C      111.534    -249.867     163.523
  N      112.575    -254.599     165.012
  C      111.837    -254.153     163.928
  N      111.330    -255.102     163.115
  N      111.626    -252.889     163.669
  C      112.196    -252.051     164.568
  C      112.966    -252.372     165.659
  C      113.194    -253.774     165.938
  O      113.854    -254.220     166.870
  N      113.425    -251.246     166.300
  C      112.822    -250.255     165.667
  N      112.119    -250.685     164.570
  O      116.480    -246.874     162.036
  O      116.260    -245.528     164.200
  H      109.767    -248.675     162.231
  H      116.945    -246.045     161.813
  H      112.701    -255.584     165.168
  H      112.885    -249.214     165.946
  H      110.968    -250.553     162.879
  H      110.278    -248.814     165.026
  H      111.458    -256.089     163.254
  H      112.249    -247.445     164.759
  H      110.794    -254.794     162.311
  H      111.820    -247.644     161.742
  H      114.201    -247.333     161.584
  H      113.556    -246.027     162.560
  P      111.559    -244.943     164.264
  C      113.221    -243.165     163.362
  O      112.293    -244.189     163.058
  O      112.763    -245.497     165.166
  O      110.623    -244.106     165.070
  H      112.776    -245.022     166.018
  H      113.976    -243.128     162.573
  H      113.718    -243.340     164.322
  H      112.696    -242.205     163.399
  H      117.995    -249.791     163.901
  H      117.811    -248.792     162.479
  H      116.428    -249.626     163.145

 3  4  5  6  7  8  9  10  11  12  23  26  30  31 0
 6-311+G(2d,p)
 ****
 33  35  36  37  38 0
 6-311+G(2d,p)
 ****
 1  2  13  14  15  16  17  18  19  20  21  22  24  25 0
 3-21G
 ****
 27  28  29  32  34  39  40  41  42  43  44  45  46  47  48  49 0
 3-21G
 ****


