%nproc=1
%NoSave
%Mem=1900MB
#P OB98/GEN NMR

erre ene a

0 1
  C     1478.711    -898.207     639.946
  O     1477.976    -897.397     639.046
  H     1479.158    -899.037     639.399
  H     1478.030    -898.627     640.707
  H     1479.491    -897.637     640.448
  P     1477.597    -895.907     639.475
  C     1478.914    -895.317     637.343
  O     1477.839    -894.947     638.218
  C     1478.757    -894.637     635.976
  O     1478.668    -893.197     636.141
  C     1479.994    -894.877     635.064
  O     1479.932    -896.077     634.304
  C     1479.943    -893.647     634.159
  O     1479.130    -893.877     633.002
  C     1479.349    -892.577     635.056
  N     1482.054    -888.307     634.310
  C     1481.266    -888.997     633.389
  N     1481.244    -888.507     632.141
  N     1480.612    -890.077     633.733
  C     1480.810    -890.497     634.989
  C     1481.574    -889.887     635.951
  C     1482.269    -888.667     635.643
  O     1482.955    -887.977     636.391
  N     1481.586    -890.617     637.122
  C     1480.910    -891.707     636.834
  N     1480.347    -891.637     635.563
  O     1478.775    -895.497     640.468
  O     1476.252    -895.757     640.136
  H     1479.522    -894.617     632.514
  H     1478.426    -894.867     641.137
  H     1482.520    -887.447     634.017
  H     1480.749    -892.547     637.477
  H     1478.601    -891.967     634.503
  H     1480.945    -893.407     633.796
  H     1481.802    -887.717     631.825
  H     1480.925    -894.857     635.647
  H     1480.836    -889.087     631.413
  H     1477.844    -894.967     635.475
  H     1478.854    -896.397     637.233
  H     1479.874    -895.057     637.783
  P     1481.190    -896.617     633.523
  C     1480.391    -899.117     633.765
  O     1480.852    -898.077     632.921
  O     1482.260    -896.967     634.682
  O     1481.772    -895.687     632.489
  H     1482.892    -896.237     634.780
  H     1480.224    -900.000     633.184
  H     1479.475    -898.818     634.231
  H     1481.125    -899.318     634.517

 6  7  8  9  10  11  12  13  14  15  26  29  33  34 0
 6-311+G(2d,p)
 ****
 36  38  39  40  41 0
 6-311+G(2d,p)
 ****
 1  2  3  4  5  16  17  18  19  20  21  22  23  24  25 0
 3-21G
 ****
 27  28  30  31  32  35  37  42  43  44  45  46  47 0
 3-21G
 ****
 48  49 0
 3-21G
 ****


