%nproc=1
%NoSave
%Mem=1900MB
#P OB98/GEN NMR

erre ene a

0 1
  C       73.510       6.926     -68.755
  O       72.893       8.175     -69.073
  P       71.305       8.158     -69.306
  C       70.932      10.498     -68.258
  O       70.787       9.673     -69.404
  C       70.420      11.922     -68.510
  O       71.423      12.722     -69.188
  C       69.150      11.971     -69.362
  O       68.370      13.079     -68.905
  C       69.680      12.288     -70.747
  O       68.660      12.839     -71.576
  C       70.833      13.242     -70.397
  N       71.818      13.370     -71.468
  C       71.658      14.435     -72.356
  O       70.678      15.178     -72.263
  N       72.581      14.611     -73.354
  C       73.553      13.764     -73.488
  N       74.435      13.990     -74.499
  C       73.729      12.591     -72.611
  C       72.837      12.461     -71.632
  O       70.730       7.649     -67.903
  O       70.876       7.267     -70.427
  H       68.259      13.599     -71.102
  H       70.096       6.921     -68.046
  H       74.543      11.900     -72.772
  H       72.884      11.636     -70.936
  H       70.449      14.246     -70.175
  H       70.064      11.378     -71.223
  H       68.555      11.054     -69.313
  H       70.229      12.391     -67.538
  H       74.285      14.810     -75.075
  H       71.984      10.545     -67.967
  H       75.225      13.396     -74.695
  H       70.406      10.035     -67.418
  P       67.106      12.782     -67.967
  C       67.340      15.077     -66.838
  O       66.513      14.229     -67.610
  O       67.818      12.384     -66.585
  O       66.131      11.739     -68.395
  H       67.146      12.107     -65.937
  H       66.871      16.062     -66.776
  H       68.322      15.182     -67.307
  H       67.447      14.676     -65.826
  H       74.562       7.071     -68.625
  H       73.341       6.232     -69.552
  H       73.088       6.540     -67.850

 3  4  5  6  7  8  9  10  11  12  13  21  23  27  28  29  30  32 0
 6-311+G(2d,p)
 ****
 34  35 0
 6-311+G(2d,p)
 ****
 1  2  14  15  16  17  18  19  20  22  24  25  26 0
 3-21G
 ****
 31  33  36  37  38  39  40  41  42  43  44  45  46 0
 3-21G
 ****


