%nproc=1
%NoSave
%Mem=1900MB
#P OB98/GEN NMR

erre ene a

0 1
  C      258.009    -345.896    -362.534
  O      257.300    -346.848    -363.344
  P      257.046    -346.519    -364.897
  C      258.265    -348.800    -365.294
  O      257.943    -347.506    -365.787
  C      258.742    -349.698    -366.441
  O      257.739    -349.760    -367.484
  C      260.005    -349.210    -367.132
  O      261.167    -349.486    -366.366
  C      259.948    -349.985    -368.445
  O      260.464    -351.318    -368.278
  C      258.432    -350.022    -368.725
  N      258.031    -349.082    -369.767
  C      257.231    -349.591    -370.786
  O      256.918    -350.778    -370.867
  N      256.836    -348.693    -371.740
  C      257.203    -347.377    -371.806
  O      256.828    -346.627    -372.698
  C      258.115    -346.917    -370.748
  C      258.483    -347.776    -369.796
  O      257.818    -345.123    -365.072
  O      255.615    -346.386    -365.308
  H      260.014    -351.695    -367.497
  H      257.401    -344.610    -365.789
  H      256.233    -349.034    -372.471
  H      258.448    -345.889    -370.779
  H      259.153    -347.452    -369.005
  H      258.128    -351.030    -369.029
  H      260.534    -349.510    -369.237
  H      259.927    -348.141    -367.347
  H      258.882    -350.711    -366.044
  H      257.373    -349.244    -364.840
  H      259.041    -348.708    -364.529
  P      261.777    -348.262    -365.524
  C      261.968    -349.615    -363.293
  O      261.365    -348.553    -364.000
  O      260.823    -347.062    -365.989
  O      263.229    -348.039    -365.781
  H      259.916    -347.365    -366.172
  H      263.004    -349.767    -363.602
  H      261.399    -350.533    -363.465
  H      261.952    -349.378    -362.228
  H      258.090    -346.269    -361.534
  H      257.477    -344.968    -362.527
  H      258.988    -345.743    -362.938

 3  4  5  6  7  8  9  10  11  12  13  23  28  29  30  31  32 0
 6-311+G(2d,p)
 ****
 33  34 0
 6-311+G(2d,p)
 ****
 1  2  14  15  16  17  18  19  20  21  22  24  25  26 0
 3-21G
 ****
 27  35  36  37  38  39  40  41  42  43  44  45 0
 3-21G
 ****


