%nproc=1
%NoSave
%Mem=1900MB
#P OB98/GEN NMR

erre ene a

0 1
  C      145.754    -265.855     139.484
  O      145.344    -265.285     140.712
  H      145.343    -266.864     139.410
  H      146.845    -265.916     139.453
  H      145.390    -265.264     138.638
  P      145.554    -263.703     140.880
  C      143.535    -263.033     139.396
  O      144.944    -263.020     139.562
  C      143.041    -261.662     138.949
  O      141.657    -261.731     138.544
  C      143.116    -260.584     140.027
  O      144.417    -260.011     140.102
  C      142.109    -259.579     139.494
  O      142.700    -258.826     138.412
  C      141.005    -260.496     138.952
  N      137.749    -258.608     142.354
  C      138.723    -257.968     141.611
  N      138.855    -256.641     141.808
  N      139.503    -258.577     140.754
  C      139.275    -259.910     140.678
  C      138.345    -260.658     141.366
  C      137.479    -259.969     142.294
  O      136.592    -260.488     142.969
  N      138.411    -261.982     141.024
  C      139.394    -262.040     140.150
  N      139.954    -260.811     139.906
  O      147.138    -263.535     140.698
  O      145.095    -263.136     142.181
  H      141.978    -258.327     137.985
  H      147.545    -263.416     141.577
  H      137.182    -258.095     143.006
  H      139.732    -262.943     139.658
  H      140.514    -260.076     138.067
  H      141.797    -258.856     140.249
  H      138.303    -256.113     142.466
  H      142.783    -260.961     141.002
  H      139.560    -256.151     141.271
  H      143.624    -261.365     138.067
  H      143.065    -263.298     140.349
  H      143.273    -263.786     138.644
  P      144.741    -259.024     141.324
  C      146.370    -260.549     142.644
  O      145.085    -259.944     142.593
  O      143.300    -258.421     141.676
  O      145.723    -257.943     141.026
  H      143.268    -257.473     141.445
  H      146.456    -261.128     143.540
  H      147.123    -259.789     142.637
  H      146.498    -261.186     141.794

 6  7  8  9  10  11  12  13  14  15  26  29  33  34 0
 6-311+G(2d,p)
 ****
 36  38  39  40  41 0
 6-311+G(2d,p)
 ****
 1  2  3  4  5  16  17  18  19  20  21  22  23  24  25 0
 3-21G
 ****
 27  28  30  31  32  35  37  42  43  44  45  46  47 0
 3-21G
 ****
 48  49 0
 3-21G
 ****


