%nproc=1
%NoSave
%Mem=1900MB
#P OB98/GEN NMR

erre ene a

0 1
  C      440.239    -364.563     317.174
  O      440.926    -363.793     316.205
  H      439.202    -364.680     316.854
  H      440.258    -364.049     318.141
  H      440.699    -365.551     317.271
  P      442.483    -363.518     316.484
  C      443.316    -365.029     314.530
  O      443.271    -364.799     315.933
  C      444.105    -366.310     314.223
  O      443.391    -367.441     314.814
  C      444.240    -366.611     312.717
  O      445.463    -367.346     312.526
  C      443.052    -367.526     312.473
  O      443.165    -368.187     311.236
  C      443.125    -368.375     313.744
  N      441.035    -373.045     313.991
  C      442.311    -372.637     313.755
  N      442.789    -371.376     313.717
  C      441.816    -370.487     313.975
  C      440.481    -370.744     314.245
  C      440.103    -372.103     314.246
  N      438.807    -372.522     314.477
  N      439.782    -369.573     314.465
  C      440.684    -368.616     314.325
  N      441.922    -369.116     314.024
  O      442.599    -363.656     318.077
  O      443.001    -362.202     316.000
  H      443.400    -367.550     310.520
  H      442.533    -362.776     318.492
  H      443.024    -373.429     313.572
  H      440.491    -367.552     314.427
  H      443.957    -369.099     313.704
  H      442.121    -366.955     312.443
  H      444.258    -365.713     312.097
  H      445.082    -366.256     314.717
  H      443.807    -364.174     314.054
  H      442.297    -365.124     314.138
  H      438.607    -373.507     314.443
  H      438.089    -371.832     314.648
  P      446.827    -366.535     312.249
  C      447.976    -367.287     314.477
  O      447.537    -366.214     313.650
  O      446.268    -365.087     311.819
  O      447.710    -367.105     311.177
  H      446.915    -364.657     311.225
  H      448.423    -366.893     315.365
  H      448.695    -367.875     313.946
  H      447.139    -367.900     314.741

 6  7  8  9  10  11  12  13  14  15  25  28  32  33  34  35 0
 6-311+G(2d,p)
 ****
 36  37  40 0
 6-311+G(2d,p)
 ****
 1  2  3  4  5  16  17  18  19  20  21  22  23  24 0
 3-21G
 ****
 26  27  29  30  31  38  39 41  42  43  44  45  46  47  48 0
 3-21G
 ****


