%nproc=1
%NoSave
%Mem=1900MB
#P OB98/GEN NMR

erre ene a

0 1
  C      185.292    -242.119    -843.408
  O      184.797    -242.193    -844.729
  H      186.204    -241.516    -843.408
  H      185.534    -243.122    -843.044
  H      184.559    -241.651    -842.746
  P      183.403    -242.964    -844.937
  C      182.113    -240.716    -844.842
  O      182.265    -242.019    -844.300
  C      180.999    -239.958    -844.114
  O      179.705    -240.439    -844.597
  C      181.011    -240.134    -842.588
  O      180.578    -238.899    -842.000
  C      179.927    -241.175    -842.356
  O      179.417    -241.146    -841.022
  C      178.922    -240.763    -843.429
  N      175.073    -243.344    -841.481
  C      175.804    -242.298    -840.954
  N      175.458    -241.868    -839.726
  N      176.789    -241.719    -841.587
  C      177.004    -242.227    -842.830
  C      176.356    -243.262    -843.456
  C      175.282    -243.915    -842.733
  O      174.613    -244.861    -843.134
  N      176.886    -243.495    -844.698
  C      177.852    -242.602    -844.822
  N      177.964    -241.810    -843.713
  O      183.513    -244.177    -843.898
  O      183.134    -243.438    -846.327
  H      180.180    -241.071    -840.412
  H      183.865    -244.970    -844.342
  H      174.332    -243.766    -840.946
  H      178.499    -242.490    -845.683
  H      178.349    -239.875    -843.148
  H      180.321    -242.181    -842.551
  H      174.683    -242.236    -839.195
  H      181.982    -240.420    -842.171
  H      175.957    -241.070    -839.339
  H      181.061    -238.901    -844.388
  H      181.854    -240.796    -845.904
  H      183.056    -240.172    -844.747
  P      181.699    -237.921    -841.395
  C      180.980    -235.571    -842.257
  O      181.863    -236.678    -842.396
  O      183.051    -238.747    -841.627
  O      181.499    -237.570    -839.956
  H      183.712    -238.487    -840.954
  H      181.217    -234.831    -842.993
  H      181.088    -235.149    -841.279
  H      179.971    -235.900    -842.394

 6  7  8  9  10  11  12  13  14  15  26  29  33  34 0
 6-311+G(2d,p)
 ****
 36  38  39  40  41 0
 6-311+G(2d,p)
 ****
 1  2  3  4  5  16  17  18  19  20  21  22  23  24  25 0
 3-21G
 ****
 27  28  30  31  32  35  37  42  43  44  45  46  47 0
 3-21G
 ****
 48  49 0
 3-21G
 ****


