%nproc=1
%NoSave
%Mem=1900MB
#P OB98/GEN NMR

erre ene a

0 1
  C     -261.423     -50.918    -116.777
  O     -262.579     -51.709    -117.018
  P     -262.906     -52.095    -118.542
  C     -262.921     -50.721    -120.746
  O     -263.045     -50.701    -119.326
  C     -263.991     -49.848    -121.387
  O     -265.302     -50.315    -121.007
  C     -263.947     -48.387    -120.963
  O     -262.965     -47.656    -121.687
  C     -265.354     -47.930    -121.340
  O     -265.410     -47.628    -122.745
  C     -266.194     -49.180    -121.028
  N     -269.274     -46.414    -118.090
  C     -268.795     -46.161    -119.359
  N     -269.219     -45.015    -119.945
  N     -267.974     -46.949    -120.002
  C     -267.665     -48.076    -119.313
  C     -268.074     -48.443    -118.047
  C     -268.944     -47.533    -117.326
  O     -269.344     -47.677    -116.173
  N     -267.561     -49.665    -117.693
  C     -266.878     -50.059    -118.752
  N     -266.890     -49.114    -119.747
  O     -264.420     -52.628    -118.464
  O     -261.994     -53.110    -119.152
  H     -265.166     -48.441    -123.226
  H     -264.591     -53.243    -119.201
  H     -269.914     -45.786    -117.652
  H     -266.371     -51.010    -118.840
  H     -266.935     -49.368    -121.815
  H     -265.672     -47.029    -120.805
  H     -269.947     -44.434    -119.552
  H     -263.809     -48.287    -119.885
  H     -268.905     -44.826    -120.890
  H     -263.901     -49.940    -122.475
  H     -263.038     -51.747    -121.103
  H     -261.920     -50.368    -121.018
  P     -262.186     -46.506    -120.879
  C     -262.972     -44.519    -119.390
  O     -263.318     -45.527    -120.333
  O     -261.468     -45.666    -122.044
  O     -261.214     -47.021    -119.871
  H     -260.667     -45.221    -121.690
  H     -261.975     -44.115    -119.597
  H     -262.988     -44.948    -118.384
  H     -263.698     -43.712    -119.452
  H     -261.327     -50.737    -115.727
  H     -261.516     -49.985    -117.292
  H     -260.556     -51.436    -117.131

 3  4  5  6  7  8  9  10  11  12  23  26  30  31  33  0
 6-311+G(2d,p)
 ****
 35  36  37  38 0
 6-311+G(2d,p)
 ****
 1  2  13  14  15  16  17  18  19  20  21  22  24  25  27  28  29 0
 3-21G
 ****
 32  34  39  40  41  42  43  44  45  46  47  48  49 0
 3-21G
 ****


