%nproc=1
%NoSave
%Mem=1900MB
#P OB98/GEN NMR

erre ene a

0 1
  C     -185.571     -33.687    -107.296
  O     -185.660     -32.267    -107.125
  P     -184.433     -31.542    -106.388
  C     -182.942     -30.473    -108.221
  O     -183.985     -30.277    -107.273
  C     -183.251     -29.766    -109.551
  O     -184.535     -30.205    -110.083
  C     -183.317     -28.239    -109.433
  O     -182.833     -27.682    -110.664
  C     -184.808     -27.966    -109.329
  O     -185.119     -26.613    -109.658
  C     -185.344     -29.026    -110.294
  N     -190.120     -27.830    -111.668
  C     -188.920     -27.371    -112.078
  N     -187.686     -27.727    -111.642
  C     -187.777     -28.695    -110.714
  C     -188.933     -29.257    -110.188
  C     -190.155     -28.783    -110.704
  N     -191.382     -29.238    -110.268
  N     -188.619     -30.191    -109.213
  C     -187.298     -30.182    -109.150
  N     -186.748     -29.317    -110.059
  O     -183.230     -32.582    -106.579
  O     -184.684     -31.253    -104.938
  H     -184.816     -26.447    -110.581
  H     -183.029     -33.016    -105.725
  H     -188.948     -26.609    -112.854
  H     -186.700     -30.771    -108.471
  H     -185.249     -28.723    -111.343
  H     -185.151     -28.157    -108.306
  H     -182.757     -27.820    -108.590
  H     -182.478     -30.049    -110.276
  H     -182.800     -31.543    -108.408
  H     -192.209     -28.824    -110.666
  H     -191.419     -29.914    -109.517
  H     -181.998     -30.116    -107.790
  P     -181.357     -27.051    -110.634
  C     -179.623     -28.799    -111.482
  O     -180.541     -27.766    -111.815
  O     -180.712     -27.661    -109.299
  O     -181.334     -25.556    -110.637
  H     -180.012     -27.069    -108.963
  H     -179.705     -29.595    -112.229
  H     -179.833     -29.225    -110.491
  H     -178.613     -28.398    -111.496
  H     -186.447     -34.041    -107.797
  H     -185.493     -34.157    -106.338
  H     -184.706     -33.922    -107.880

 3  4  5  6  7  8  9  10  11  12  22  25  29  30  31  32 0
 6-311+G(2d,p)
 ****
 33  36  37 0
 6-311+G(2d,p)
 ****
 1  2  13  14  15  16  17  18  19  20  21  23  24  26 0
 3-21G
 ****
 27  28  34  35  38  39  40  41  42  43  44  45  46  47  48 0
 3-21G
 ****


