%nproc=1
%NoSave
%Mem=1900MB
#P OB98/GEN NMR

erre ene a

0 1
  C      186.089    -181.463     -73.156
  O      185.404    -182.413     -72.335
  P      185.660    -182.368     -70.747
  C      186.030    -184.927     -70.555
  O      186.580    -183.626     -70.338
  C      187.004    -186.014     -70.083
  O      188.252    -185.882     -70.804
  C      187.375    -185.934     -68.590
  O      186.554    -186.629     -67.649
  C      188.731    -186.639     -68.586
  O      188.538    -188.072     -68.535
  C      189.354    -186.252     -69.931
  N      194.278    -185.058     -69.243
  C      193.627    -186.245     -69.299
  N      192.314    -186.480     -69.488
  C      191.650    -185.325     -69.638
  C      192.162    -184.032     -69.596
  C      193.557    -183.920     -69.386
  N      194.202    -182.711     -69.317
  N      191.165    -183.101     -69.779
  C      190.057    -183.813     -69.904
  N      190.294    -185.167     -69.835
  O      184.450    -182.159     -69.903
  O      186.685    -181.144     -70.604
  H      188.219    -188.274     -67.638
  H      186.469    -180.652     -69.780
  H      194.255    -187.132     -69.176
  H      189.063    -183.394     -70.038
  H      189.870    -187.091     -70.404
  H      189.336    -186.371     -67.718
  H      187.499    -184.896     -68.274
  H      186.582    -187.002     -70.304
  H      185.823    -185.058     -71.626
  H      195.191    -182.718     -69.119
  H      193.675    -181.855     -69.373
  H      185.065    -184.959     -70.040
  P      185.660    -185.838     -66.583
  C      187.262    -186.436     -64.587
  O      186.668    -185.430     -65.396
  O      184.425    -186.553     -66.136
  O      185.392    -184.449     -67.322
  H      186.180    -183.887     -67.416
  H      188.065    -185.980     -63.998
  H      187.692    -187.231     -65.207
  H      186.511    -186.858     -63.911
  H      185.819    -181.617     -74.180
  H      187.145    -181.590     -73.043
  H      185.815    -180.472     -72.860

 3  4  5  6  7  8  9  10  11  12  22  25  29  30  31  32 0
 6-311+G(2d,p)
 ****
 33  36  37 0
 6-311+G(2d,p)
 ****
 1  2  13  14  15  16  17  18  19  20  21  23  24  26 0
 3-21G
 ****
 27  28  34  35  38  39  40  41  42  43  44  45  46  47  48 0
 3-21G
 ****


