%nproc=1
%NoSave
%Mem=1900MB
#P OB98/GEN NMR

erre ene a

0 1
  C        1.532     658.772     520.796
  O        0.928     659.814     520.022
  P        1.349     661.351     520.185
  C        0.443     661.679     517.790
  O        0.540     662.225     519.101
  C       -0.479     662.511     516.897
  O       -1.811     662.578     517.448
  C       -0.038     663.956     516.704
  O        1.010     664.038     515.758
  C       -1.338     664.624     516.273
  O       -1.587     664.399     514.880
  C       -2.373     663.869     517.126
  N       -4.972     667.838     519.041
  C       -4.828     667.376     517.779
  N       -4.117     666.310     517.355
  C       -3.521     665.683     518.385
  C       -3.574     666.049     519.724
  C       -4.342     667.189     520.044
  N       -4.468     667.666     521.325
  N       -2.819     665.186     520.488
  C       -2.341     664.305     519.629
  N       -2.738     664.566     518.347
  O        2.828     661.586     520.176
  O        0.713     661.811     521.579
  H       -2.424     664.845     514.651
  H        1.252     662.525     521.966
  H       -5.357     667.934     517.011
  H       -1.702     663.467     519.890
  H       -3.292     663.672     516.572
  H       -1.343     665.705     516.442
  H        0.291     664.383     517.664
  H       -0.554     662.003     515.923
  H        0.045     660.656     517.872
  H       -5.005     668.505     521.472
  H       -3.964     667.208     522.073
  H        1.444     661.626     517.351
  P        2.538     664.077     516.236
  C        3.269     662.935     514.060
  O        3.456     664.032     514.922
  O        2.910     663.084     517.292
  O        2.738     665.573     516.761
  H        3.412     665.584     517.467
  H        3.807     662.069     514.455
  H        3.677     663.189     513.070
  H        2.207     662.691     513.953
  H        1.102     657.831     520.524
  H        1.361     658.956     521.836
  H        2.585     658.751     520.606

 3  4  5  6  7  8  9  10  11  12  22  25  29  30  31  32 0
 6-311+G(2d,p)
 ****
 33  36  37 0
 6-311+G(2d,p)
 ****
 1  2  13  14  15  16  17  18  19  20  21  23  24  26 0
 3-21G
 ****
 27  28  34  35  38  39  40  41  42  43  44  45  46  47  48 0
 3-21G
 ****


