%nproc=1
%NoSave
%Mem=1900MB
#P OB98/GEN NMR

erre ene a

0 1
  C     -393.127    -129.284    -266.054
  O     -393.418    -129.658    -267.390
  P     -392.256    -129.708    -268.495
  C     -391.674    -128.149    -270.455
  O     -392.153    -128.232    -269.118
  C     -392.405    -127.049    -271.221
  O     -393.738    -127.515    -271.557
  C     -392.565    -125.756    -270.427
  O     -392.449    -124.647    -271.322
  C     -393.990    -125.804    -269.909
  O     -394.501    -124.483    -269.669
  C     -394.693    -126.579    -271.028
  N     -399.784    -126.489    -270.369
  C     -398.930    -125.589    -270.909
  N     -397.587    -125.666    -271.028
  C     -397.141    -126.847    -270.569
  C     -397.888    -127.863    -269.998
  C     -399.275    -127.652    -269.898
  N     -400.145    -128.577    -269.361
  N     -397.077    -128.914    -269.617
  C     -395.867    -128.545    -269.972
  N     -395.853    -127.310    -270.561
  O     -392.389    -130.797    -269.501
  O     -390.905    -129.839    -267.651
  H     -394.412    -123.982    -270.508
  H     -390.279    -130.436    -268.104
  H     -399.390    -124.682    -271.291
  H     -394.969    -129.124    -269.818
  H     -395.002    -125.915    -271.845
  H     -394.017    -126.354    -268.959
  H     -391.829    -125.662    -269.618
  H     -391.872    -126.865    -272.164
  H     -391.854    -129.110    -270.947
  H     -401.130    -128.389    -269.445
  H     -399.793    -129.505    -269.172
  H     -390.594    -127.962    -270.445
  P     -391.655    -123.363    -270.751
  C     -391.828    -122.169    -268.441
  O     -391.956    -123.367    -269.181
  O     -391.990    -122.118    -271.505
  O     -390.138    -123.845    -270.895
  H     -390.068    -124.828    -270.887
  H     -392.035    -122.382    -267.390
  H     -392.551    -121.431    -268.796
  H     -390.812    -121.773    -268.533
  H     -394.025    -129.311    -265.473
  H     -392.723    -128.293    -266.041
  H     -392.414    -129.966    -265.640

 3  4  5  6  7  8  9  10  11  12  22  25  29  30  31  32 0
 6-311+G(2d,p)
 ****
 33  36  37 0
 6-311+G(2d,p)
 ****
 1  2  13  14  15  16  17  18  19  20  21  23  24  26 0
 3-21G
 ****
 27  28  34  35  38  39  40  41  42  43  44  45  46  47  48 0
 3-21G
 ****


