%nproc=1
%NoSave
%Mem=1900MB
#P OB98/GEN NMR

erre ene a

0 1
  C      501.067     547.427     301.379
  O      499.872     546.830     301.882
  P      498.397     547.268     301.475
  C      497.300     548.656     303.418
  O      498.062     548.643     302.213
  C      497.010     550.067     303.947
  O      498.223     550.639     304.499
  C      496.574     550.995     302.807
  O      495.235     551.003     302.359
  C      497.118     552.367     303.191
  O      496.150     553.157     303.872
  C      498.298     552.029     304.116
  N      501.788     555.576     302.886
  C      500.527     555.740     303.445
  N      500.123     557.017     303.653
  N      499.733     554.745     303.748
  C      500.228     553.532     303.401
  C      501.441     553.240     302.827
  C      502.340     554.347     302.544
  O      503.471     554.247     302.062
  N      501.583     551.898     302.598
  C      500.450     551.367     303.005
  N      499.591     552.322     303.517
  O      497.356     546.197     301.543
  O      498.552     547.694     299.923
  H      496.527     554.051     304.003
  H      497.705     547.469     299.483
  H      502.359     556.372     302.693
  H      500.192     550.322     302.971
  H      498.240     552.618     305.033
  H      497.406     552.931     302.299
  H      500.636     557.818     303.338
  H      497.164     550.691     301.914
  H      499.131     557.143     303.864
  H      496.288     550.041     304.770
  H      497.878     548.073     304.152
  H      496.361     548.112     303.271
  P      494.678     550.348     301.009
  C      495.617     552.082     299.368
  O      495.665     550.738     299.812
  O      493.373     551.218     300.679
  O      494.337     548.889     301.105
  H      492.809     550.739     300.027
  H      496.084     552.151     298.383
  H      496.151     552.729     300.077
  H      494.580     552.427     299.296
  H      501.917     546.945     301.814
  H      501.079     548.467     301.630
  H      501.100     547.317     300.315

 3  4  5  6  7  8  9  10  11  12  23  26  30  31 0
 6-311+G(2d,p)
 ****
 33  35  36  37  38 0
 6-311+G(2d,p)
 ****
 1  2  13  14  15  16  17  18  19  20  21  22  24  25 0
 3-21G
 ****
 27  28  29  32  34  39  40  41  42  43  44  45  46  47  48  49 0
 3-21G
 ****


