%nproc=1
%NoSave
%Mem=1900MB
#P OB98/GEN NMR

erre ene a

0 1
  C      -96.223      40.664      23.320
  O      -95.895      39.948      22.147
  H      -95.384      41.316      23.579
  H      -96.392      39.969      24.146
  H      -97.111      41.283      23.168
  P      -97.046      39.123      21.397
  C      -96.933      36.778      22.465
  O      -97.590      38.037      22.446
  C      -97.815      35.718      23.131
  O      -99.081      35.646      22.407
  C      -97.205      34.301      23.125
  O      -97.658      33.636      24.312
  C      -97.853      33.710      21.888
  O      -97.707      32.315      21.835
  C      -99.271      34.264      22.044
  N     -100.083      34.136      20.841
  C     -101.364      33.614      20.988
  O     -101.850      33.282      22.066
  N     -102.084      33.473      19.831
  C     -101.654      33.789      18.576
  O     -102.349      33.662      17.575
  C     -100.280      34.308      18.482
  C      -99.569      34.456      19.601
  O      -96.684      38.579      20.056
  O      -98.257      40.166      21.303
  H      -98.262      40.582      20.421
  H      -98.109      31.897      22.626
  H     -103.016      33.097      19.918
  H      -99.901      34.548      17.498
  H      -98.552      34.834      19.571
  H      -99.786      33.780      22.879
  H      -97.379      34.108      20.986
  H      -96.112      34.307      23.103
  H      -98.051      36.042      24.152
  H      -95.999      36.888      23.025
  H      -96.700      36.477      21.439
  P      -96.812      33.594      25.676
  C      -95.491      31.395      25.422
  O      -95.432      32.814      25.424
  O      -97.584      33.069      26.843
  O      -96.355      35.106      25.942
  H      -96.359      35.279      26.902
  H      -94.513      30.998      25.245
  H      -96.155      31.067      24.650
  H      -95.849      31.052      26.370

 6  7  8  9  10  11  12  13  14  15  16  27  31  32  33  34  35 0
 6-311+G(2d,p)
 ****
 36  37 0
 6-311+G(2d,p)
 ****
 1  2  3  4  5  17  18  19  20  21  22  23  24  25 0
 3-21G
 ****
 26  28  29  30  38  39  40  41  42  43  44  45 0
 3-21G
 ****


