%nproc=1
%NoSave
%Mem=1900MB
#P OB98/GEN NMR

erre ene a

0 1
  C      215.101     738.790     -84.124
  O      214.552     740.075     -84.368
  P      213.510     740.737     -83.357
  C      211.959     742.127     -84.958
  O      212.988     742.103     -83.988
  C      211.374     743.543     -85.027
  O      210.748     743.888     -83.774
  C      212.457     744.578     -85.320
  O      212.534     744.845     -86.716
  C      212.000     745.766     -84.496
  O      210.982     746.509     -85.200
  C      211.398     745.078     -83.251
  N      212.318     744.651     -82.177
  C      213.165     745.594     -81.591
  O      213.173     746.786     -81.882
  N      214.030     745.102     -80.641
  C      214.089     743.805     -80.212
  O      215.012     743.337     -79.562
  C      213.004     742.938     -80.669
  C      212.197     743.387     -81.631
  O      214.436     741.218     -82.145
  O      212.412     739.839     -82.893
  H      211.310     746.677     -86.094
  H      214.413     740.577     -81.412
  H      214.738     745.752     -80.311
  H      212.929     741.944     -80.249
  H      211.409     742.746     -82.010
  H      210.627     745.702     -82.788
  H      212.821     746.464     -84.331
  H      213.422     744.233     -84.931
  H      210.603     743.566     -85.810
  H      211.175     741.400     -84.685
  H      212.350     741.822     -85.930
  P      213.755     744.265     -87.563
  C      213.715     746.415     -88.963
  O      213.665     744.996     -88.982
  O      213.850     742.766     -87.610
  O      215.039     744.915     -86.860
  H      215.434     744.276     -86.233
  H      213.823     746.780     -89.988
  H      214.565     746.757     -88.360
  H      212.785     746.810     -88.547
  H      215.773     738.533     -84.916
  H      214.312     738.068     -84.077
  H      215.632     738.800     -83.195

 3  4  5  6  7  8  9  10  11  12  13  23  28  29  30  31  32 0
 6-311+G(2d,p)
 ****
 33  34 0
 6-311+G(2d,p)
 ****
 1  2  14  15  16  17  18  19  20  21  22  24  25  26  27 0
 3-21G
 ****
 35  36  37  38  39  40  41  42  43  44  45 0
 3-21G
 ****


