%nproc=1
%NoSave
%Mem=1900MB
#P OB98/GEN NMR

erre ene a

0 1
  C     -310.604     358.844     407.500
  O     -310.955     360.139     407.945
  H     -311.433     358.409     406.929
  H     -309.732     358.916     406.848
  H     -310.371     358.204     408.354
  P     -312.250     360.261     408.885
  C     -310.828     361.978     410.215
  O     -312.113     361.646     409.702
  C     -310.962     363.039     411.298
  O     -311.165     364.332     410.659
  C     -312.125     362.805     412.287
  O     -311.632     362.740     413.632
  C     -312.982     364.061     412.163
  O     -313.483     364.525     413.408
  C     -312.039     365.073     411.511
  N     -315.371     368.915     411.889
  C     -314.538     368.361     412.805
  N     -313.600     367.415     412.610
  C     -313.532     367.048     411.316
  C     -314.314     367.537     410.273
  C     -315.282     368.500     410.608
  N     -316.168     369.025     409.688
  N     -313.984     366.913     409.086
  C     -313.056     366.036     409.413
  N     -312.763     366.064     410.758
  O     -312.005     359.135     409.995
  O     -313.556     360.070     408.194
  H     -314.073     363.834     413.753
  H     -312.806     358.603     410.114
  H     -314.633     368.728     413.825
  H     -312.593     365.317     408.741
  H     -311.425     365.597     412.265
  H     -313.837     363.839     411.496
  H     -312.712     361.914     412.050
  H     -310.007     363.099     411.847
  H     -310.202     362.369     409.406
  H     -316.900     369.621     410.041
  H     -316.177     368.648     408.753
  H     -310.350     361.070     410.604
  P     -311.537     361.265     414.287
  C     -309.047     361.656     414.956
  O     -310.360     361.303     415.367
  O     -310.903     360.381     413.096
  O     -312.852     360.720     414.747
  H     -311.167     359.451     413.182
  H     -308.390     361.631     415.800
  H     -309.056     362.642     414.541
  H     -308.706     360.961     414.217

 6  7  8  9  10  11  12  13  14  15  25  28  32  33  34  35 0
 6-311+G(2d,p)
 ****
 36  39  40 0
 6-311+G(2d,p)
 ****
 1  2  3  4  5  16  17  18  19  20  21  22  23  24 0
 3-21G
 ****
 26  27  29  30  31  37  38  41  42  43  44  45  46  47  48 0
 3-21G
 ****


