%nproc=1
%NoSave
%Mem=1900MB
#P OB98/GEN NMR

erre ene a

0 1
  C      -97.112    -183.042    -149.192
  O      -96.591    -184.059    -150.027
  H      -96.309    -182.673    -148.548
  H      -97.919    -183.427    -148.563
  H      -97.479    -182.207    -149.800
  P      -97.629    -184.933    -150.885
  C      -96.684    -187.190    -150.048
  O      -96.879    -186.329    -151.170
  C      -96.336    -188.611    -150.499
  O      -97.496    -189.252    -151.058
  C      -95.280    -188.661    -151.598
  O      -93.987    -188.280    -151.180
  C      -95.500    -190.044    -152.199
  O      -94.797    -191.079    -151.515
  C      -97.026    -190.235    -152.011
  N      -97.749    -190.163    -153.274
  C      -97.552    -191.223    -154.151
  O      -96.795    -192.169    -153.910
  N      -98.215    -191.141    -155.340
  C      -99.002    -190.106    -155.754
  O      -99.538    -190.073    -156.856
  C      -99.153    -188.997    -154.796
  C      -98.533    -189.073    -153.617
  O      -98.174    -184.279    -152.119
  O      -98.756    -185.338    -149.823
  H      -94.646    -191.795    -152.163
  H      -99.578    -185.648    -150.277
  H      -98.093    -191.910    -155.985
  H      -99.771    -188.149    -155.089
  H      -98.627    -188.270    -152.890
  H      -97.230    -191.218    -151.566
  H      -95.185    -190.083    -153.244
  H      -95.564    -187.941    -152.376
  H      -96.020    -189.186    -149.620
  H      -97.621    -187.212    -149.477
  H      -95.892    -186.786    -149.408
  P      -93.417    -186.797    -151.330
  C      -90.876    -187.245    -151.673
  O      -91.897    -186.790    -150.793
  O      -94.327    -185.677    -150.932
  O      -93.206    -186.702    -152.927
  H      -93.394    -185.779    -153.193
  H      -89.928    -187.183    -151.181
  H      -90.863    -186.634    -152.551
  H      -91.069    -188.261    -151.948

 6  7  8  9  10  11  12  13  14  15  16  26  31  32  33  34  35 0
 6-311+G(2d,p)
 ****
 36  37 0
 6-311+G(2d,p)
 ****
 1  2  3  4  5  17  18  19  20  21  22  23  24  25 0
 3-21G
 ****
 27  28  29  30  38  39  40  41  42  43  44  45 0
 3-21G
 ****


