%nproc=1
%NoSave
%Mem=1900MB
#P OB98/GEN NMR

erre ene a

0 1
  C     -205.560    -305.326    -252.379
  O     -206.260    -304.659    -253.418
  P     -207.169    -305.487    -254.455
  C     -207.133    -303.645    -256.243
  O     -207.933    -304.367    -255.325
  C     -207.765    -302.265    -256.509
  O     -208.909    -302.455    -257.377
  C     -208.293    -301.521    -255.281
  O     -207.316    -300.772    -254.575
  C     -209.282    -300.562    -255.949
  O     -208.566    -299.441    -256.508
  C     -209.890    -301.430    -257.040
  N     -214.984    -300.933    -256.907
  C     -214.006    -300.146    -257.408
  N     -212.676    -300.340    -257.387
  C     -212.368    -301.522    -256.813
  C     -213.250    -302.438    -256.258
  C     -214.626    -302.107    -256.319
  N     -215.617    -302.923    -255.832
  N     -212.569    -303.514    -255.747
  C     -211.290    -303.252    -255.992
  N     -211.134    -302.062    -256.646
  O     -208.036    -306.528    -253.829
  O     -206.125    -306.089    -255.501
  H     -209.223    -298.838    -256.910
  H     -206.543    -306.823    -256.003
  H     -214.349    -299.225    -257.886
  H     -210.464    -303.899    -255.717
  H     -210.080    -300.858    -257.968
  H     -210.000    -300.138    -255.233
  H     -208.846    -302.202    -254.613
  H     -207.021    -301.654    -257.046
  H     -207.087    -304.196    -257.179
  H     -216.566    -302.681    -256.032
  H     -215.356    -303.868    -255.544
  H     -206.111    -303.528    -255.855
  P     -207.261    -300.976    -252.977
  C     -206.251    -298.577    -252.633
  O     -206.116    -299.975    -252.446
  O     -207.124    -302.390    -252.527
  O     -208.612    -300.273    -252.480
  H     -208.656    -299.314    -252.603
  H     -205.459    -298.073    -252.070
  H     -207.223    -298.227    -252.253
  H     -206.156    -298.323    -253.680
  H     -205.016    -304.610    -251.799
  H     -204.878    -306.032    -252.805
  H     -206.258    -305.838    -251.750

 3  4  5  6  7  8  9  10  11  12  22  25  29  30  31  32 0
 6-311+G(2d,p)
 ****
 33  36  37 0
 6-311+G(2d,p)
 ****
 1  2  13  14  15  16  17  18  19  20  21  23  24  26 0
 3-21G
 ****
 27  28  34  35  38  39  40  41  42  43  44  45  46  47  48 0
 3-21G
 ****


