%nproc=1
%NoSave
%Mem=1900MB
#P OB98/GEN NMR

erre ene a

0 1
  C     -185.839    -387.374    -385.989
  O     -186.809    -386.533    -386.577
  H     -184.870    -387.159    -386.447
  H     -186.085    -388.423    -386.173
  H     -185.765    -387.191    -384.914
  P     -188.301    -386.549    -385.993
  C     -188.613    -384.077    -385.336
  O     -188.374    -385.401    -384.876
  C     -189.866    -383.515    -384.673
  O     -191.022    -384.301    -385.036
  C     -189.817    -383.528    -383.148
  O     -188.986    -382.494    -382.662
  C     -191.295    -383.381    -382.822
  O     -191.718    -382.014    -382.946
  C     -191.944    -384.251    -383.924
  N     -192.283    -385.598    -383.459
  C     -193.334    -386.228    -384.117
  O     -193.960    -385.710    -385.038
  N     -193.671    -387.470    -383.648
  C     -193.132    -388.082    -382.554
  O     -193.611    -389.089    -382.040
  C     -191.980    -387.404    -381.945
  C     -191.623    -386.203    -382.407
  O     -188.815    -387.882    -385.564
  O     -189.178    -385.939    -387.187
  H     -189.624    -386.666    -387.663
  H     -191.188    -381.501    -382.305
  H     -194.460    -387.916    -384.090
  H     -191.483    -387.888    -381.114
  H     -190.794    -385.670    -381.954
  H     -192.863    -383.778    -384.294
  H     -191.529    -383.698    -381.804
  H     -189.473    -384.506    -382.793
  H     -190.022    -382.494    -385.046
  H     -188.757    -384.106    -386.422
  H     -187.740    -383.456    -385.109
  P     -188.289    -382.599    -381.226
  C     -186.250    -384.033    -381.819
  O     -187.504    -383.995    -381.155
  O     -189.189    -382.333    -380.065
  O     -187.103    -381.524    -381.286
  H     -187.177    -380.923    -380.518
  H     -185.817    -385.005    -381.708
  H     -185.597    -383.301    -381.391
  H     -186.390    -383.821    -382.858

 6  7  8  9  10  11  12  13  14  15  16  27  31  32  33  34  35 0
 6-311+G(2d,p)
 ****
 36  37 0
 6-311+G(2d,p)
 ****
 1  2  3  4  5  17  18  19  20  21  22  23  24  25 0
 3-21G
 ****
 26  28  29  30  38  39  40  41  42  43  44  45 0
 3-21G
 ****


