%nproc=1
%NoSave
%Mem=1900MB
#P OB98/GEN NMR

erre ene a

0 1
  C     -161.157    -893.640     528.798
  O     -162.333    -893.130     529.417
  P     -163.004    -894.020     530.605
  C     -164.706    -895.390     529.263
  O     -163.475    -895.410     529.997
  C     -165.339    -896.800     529.245
  O     -165.711    -897.240     530.564
  C     -166.622    -896.840     528.426
  O     -166.336    -896.830     527.039
  C     -167.232    -898.150     528.937
  O     -166.643    -899.300     528.290
  C     -166.807    -898.150     530.441
  N     -167.896    -897.800     531.340
  C     -168.444    -898.840     532.080
  O     -168.024    -900.000     531.918
  N     -169.462    -898.550     532.955
  C     -169.908    -897.350     533.075
  N     -170.897    -897.130     533.972
  C     -169.358    -896.220     532.290
  C     -168.371    -896.490     531.462
  O     -164.006    -893.280     531.454
  O     -161.712    -894.430     531.505
  H     -166.880    -899.200     527.352
  H     -161.984    -894.520     532.424
  H     -169.757    -895.210     532.439
  H     -167.940    -895.730     530.826
  H     -166.438    -899.130     530.744
  H     -168.295    -898.190     528.768
  H     -167.272    -896.020     528.674
  H     -164.595    -897.490     528.824
  H     -171.282    -897.920     534.484
  H     -164.493    -895.050     528.250
  H     -171.271    -896.210     534.164
  H     -165.382    -894.660     529.718
  P     -166.443    -895.420     526.282
  C     -168.363    -896.320     524.779
  O     -167.894    -895.300     525.674
  O     -165.486    -895.630     525.004
  O     -165.991    -894.230     527.104
  H     -165.080    -894.800     524.767
  H     -169.467    -896.270     524.728
  H     -168.100    -897.340     525.191
  H     -167.941    -896.210     523.814
  H     -160.828    -892.958     528.042
  H     -161.371    -894.589     528.354
  H     -160.388    -893.756     529.533

 3  4  5  6  7  8  9  10  11  12  13  23  27  28  29  30  32 0
 6-311+G(2d,p)
 ****
 34  35 0
 6-311+G(2d,p)
 ****
 1  2  14  15  16  17  18  19  20  21  22  24  25  26 0
 3-21G
 ****
 31  33  36  37  38  39  40  41  42  43  44  45  46 0
 3-21G
 ****


