%nproc=1
%NoSave
%Mem=1900MB
#P OB98/GEN NMR

erre ene a

0 1
  C       -0.389     206.082    -173.466
  O       -1.400     206.623    -174.298
  P       -2.368     205.667    -175.136
  C       -4.301     207.345    -175.138
  O       -3.395     206.602    -175.941
  C       -4.728     208.640    -175.832
  O       -3.592     209.551    -175.876
  C       -5.226     208.461    -177.272
  O       -6.246     209.442    -177.483
  C       -3.999     208.817    -178.099
  O       -4.318     209.179    -179.435
  C       -3.423     209.949    -177.252
  N       -0.070     212.993    -179.629
  C       -1.419     212.993    -179.596
  N       -2.241     212.133    -178.960
  C       -1.535     211.196    -178.305
  C       -0.157     211.046    -178.271
  C        0.595     212.016    -178.960
  N        1.972     212.048    -178.974
  N        0.186     209.928    -177.536
  C       -0.960     209.416    -177.139
  N       -2.022     210.184    -177.526
  O       -3.011     204.567    -174.355
  O       -1.428     205.081    -176.290
  H       -3.486     209.288    -179.933
  H       -1.211     204.147    -176.099
  H       -1.903     213.793    -180.148
  H       -1.077     208.498    -176.576
  H       -3.961     210.891    -177.404
  H       -3.318     207.957    -178.134
  H       -5.601     207.457    -177.491
  H       -5.499     209.120    -175.218
  H       -3.798     207.592    -174.198
  H        2.406     212.859    -179.386
  H        2.484     211.507    -178.280
  H       -5.182     206.735    -174.908
  P       -7.783     208.992    -177.565
  C       -8.440     211.297    -176.668
  O       -8.644     210.335    -177.687
  O       -8.227     208.039    -176.505
  O       -7.905     208.347    -179.029
  H       -8.713     207.799    -179.078
  H       -9.015     211.018    -175.782
  H       -8.786     212.272    -177.025
  H       -7.381     211.372    -176.403
  H        0.148     206.878    -172.994
  H        0.285     205.499    -174.057
  H       -0.837     205.461    -172.718

 3  4  5  6  7  8  9  10  11  12  22  25  29  30  31  32 0
 6-311+G(2d,p)
 ****
 33  36  37 0
 6-311+G(2d,p)
 ****
 1  2  13  14  15  16  17  18  19  20  21  23  24  26 0
 3-21G
 ****
 27  28  34  35  38  39  40  41  42  43  44  45  46  47  48 0
 3-21G
 ****


