%nproc=1
%NoSave
%Mem=1900MB
#P OB98/GEN NMR

erre ene a

0 1
  C       27.149     171.699     181.168
  O       26.224     170.755     180.669
  P       25.017     171.275     179.747
  C       23.137     170.409     181.373
  O       23.745     170.355     180.091
  C       22.448     169.076     181.688
  O       21.392     168.850     180.711
  C       23.375     167.858     181.665
  O       22.918     166.952     182.680
  C       23.126     167.270     180.282
  O       23.480     165.897     180.194
  C       21.629     167.553     180.123
  N       21.177     167.532     178.727
  C       20.538     166.383     178.263
  O       20.355     165.374     178.949
  N       20.137     166.415     176.949
  C       20.371     167.427     176.061
  O       20.005     167.394     174.893
  C       21.088     168.593     176.603
  C       21.445     168.598     177.880
  O       25.487     170.762     178.305
  O       24.771     172.745     179.846
  H       25.945     169.904     178.332
  H       24.444     165.821     180.344
  H       19.644     165.609     176.601
  H       21.307     169.413     175.916
  H       21.982     169.440     178.300
  H       21.045     166.826     180.704
  H       23.716     167.826     179.540
  H       24.425     168.120     181.843
  H       21.963     169.171     182.672
  H       22.391     171.212     181.382
  H       23.899     170.651     182.124
  P       23.569     167.079     184.155
  C       25.392     165.194     184.087
  O       24.126     165.627     184.552
  O       22.236     167.195     185.036
  O       24.496     168.237     184.340
  H       21.568     166.530     184.819
  H       25.726     164.362     184.723
  H       26.134     165.991     184.138
  H       25.303     164.835     183.061
  H       27.886     171.198     181.760
  H       26.635     172.417     181.772
  H       27.626     172.197     180.350

 3  4  5  6  7  8  9  10  11  12  13  24  28  29  30  31  32 0
 6-311+G(2d,p)
 ****
 33  34 0
 6-311+G(2d,p)
 ****
 1  2  14  15  16  17  18  19  20  21  22  23  25  26  27 0
 3-21G
 ****
 35  36  37  38  39  40  41  42  43  44  45 0
 3-21G
 ****


