%nproc=1
%NoSave
%Mem=1900MB
#P OB98/GEN NMR

erre ene a

0 1
  C      322.601    -142.438    -890.202
  O      321.450    -141.677    -889.912
  H      323.193    -141.963    -890.992
  H      323.217    -142.510    -889.292
  H      322.319    -143.453    -890.502
  P      320.410    -141.460    -891.112
  C      320.625    -140.183    -893.372
  O      321.000    -140.261    -892.002
  C      320.496    -138.721    -893.782
  O      321.769    -138.035    -893.632
  C      320.083    -138.512    -895.232
  O      318.683    -138.655    -895.432
  C      320.526    -137.077    -895.452
  O      319.579    -136.177    -894.842
  C      321.853    -137.048    -894.682
  N      325.764    -134.996    -897.302
  C      324.761    -134.437    -896.582
  N      323.758    -135.047    -895.922
  C      323.851    -136.381    -896.042
  C      324.818    -137.104    -896.752
  C      325.812    -136.347    -897.392
  N      326.822    -136.917    -898.122
  N      324.559    -138.452    -896.672
  C      323.488    -138.560    -895.912
  N      323.008    -137.335    -895.522
  O      319.143    -140.791    -890.392
  O      320.045    -142.684    -891.882
  H      319.817    -135.277    -895.132
  H      318.347    -140.907    -890.942
  H      324.769    -133.347    -896.532
  H      323.017    -139.491    -895.642
  H      322.039    -136.072    -894.212
  H      320.597    -136.804    -896.502
  H      320.656    -139.171    -895.912
  H      319.771    -138.228    -893.102
  H      319.660    -140.676    -893.502
  H      327.371    -136.286    -898.702
  H      326.780    -137.908    -898.322
  H      321.379    -140.684    -893.982
  P      318.199    -139.423    -896.742
  C      318.713    -139.163    -899.292
  O      318.800    -138.592    -897.972
  O      316.632    -139.097    -896.802
  O      318.473    -140.898    -896.762
  H      316.145    -139.798    -897.272
  H      319.155    -138.493    -900.000
  H      317.686    -139.322    -899.545
  H      319.234    -140.097    -899.311

 6  7  8  9  10  11  12  13  14  15  25  28  32  33  34  35 0
 6-311+G(2d,p)
 ****
 36  39  40 0
 6-311+G(2d,p)
 ****
 1  2  3  4  5  16  17  18  19  20  21  22  23  24 0
 3-21G
 ****
 26  27  29  30  31  37  38  41  42  43  44  45  46  47 0
 3-21G
 ****
 48 0
 3-21G
 ****


