%nproc=1
%NoSave
%Mem=1900MB
#P OB98/GEN NMR

erre ene a

0 1
  C     -116.665      17.704     -59.667
  O     -115.870      18.426     -60.581
  H     -117.717      17.880     -59.904
  H     -116.469      18.058     -58.650
  H     -116.467      16.630     -59.725
  P     -114.333      18.018     -60.755
  C     -113.577      20.327     -59.885
  O     -113.470      18.916     -59.741
  C     -112.897      21.072     -58.736
  O     -113.495      20.697     -57.475
  C     -111.411      20.726     -58.617
  O     -110.548      21.464     -59.463
  C     -111.136      21.036     -57.149
  O     -110.832      22.429     -56.967
  C     -112.463      20.684     -56.473
  N     -111.805      18.111     -52.108
  C     -111.668      19.464     -52.349
  N     -111.246      20.216     -51.309
  N     -111.906      20.018     -53.508
  C     -112.228      19.130     -54.479
  C     -112.381      17.766     -54.363
  C     -112.169      17.170     -53.060
  O     -112.270      15.976     -52.796
  N     -112.718      17.193     -55.567
  C     -112.694      18.198     -56.420
  N     -112.428      19.397     -55.802
  O     -113.939      18.635     -62.183
  O     -114.051      16.547     -60.708
  H     -110.572      22.567     -56.038
  H     -113.206      18.126     -62.573
  H     -111.636      17.744     -51.188
  H     -112.889      18.116     -57.484
  H     -112.741      21.432     -55.720
  H     -110.277      20.473     -56.771
  H     -110.939      19.819     -50.434
  H     -111.256      19.654     -58.777
  H     -110.880      21.149     -51.510
  H     -113.053      22.150     -58.861
  H     -114.643      20.562     -59.902
  H     -113.160      20.643     -60.845
  P     -109.157      20.831     -59.938
  C     -107.834      21.729     -57.883
  O     -108.271      20.608     -58.621
  O     -108.443      22.058     -60.676
  O     -109.278      19.642     -60.827
  H     -108.589      22.004     -61.638
  H     -107.259      21.401     -57.042
  H     -108.683      22.283     -57.540
  H     -107.229      22.353     -58.507

 6  7  8  9  10  11  12  13  14  15  26  29  33  34 0
 6-311+G(2d,p)
 ****
 36  38  39  40  41 0
 6-311+G(2d,p)
 ****
 1  2  3  4  5  16  17  18  19  20  21  22  23  24  25 0
 3-21G
 ****
 27  28  30  31  32  35  37  42  43  44  45  46  47 0
 3-21G
 ****
 48  49 0
 3-21G
 ****


