%nproc=1
%NoSave
%Mem=1900MB
#P OB98/GEN NMR

erre ene a

0 1
  C      218.042    -100.142      36.074
  O      218.103    -100.992      37.207
  P      216.756    -101.750      37.632
  C      218.006    -103.791      38.655
  O      217.120    -102.698      38.870
  C      218.671    -104.197      39.970
  O      219.607    -103.182      40.386
  C      217.710    -104.368      41.139
  O      216.989    -105.584      41.037
  C      218.682    -104.294      42.311
  O      219.356    -105.554      42.471
  C      219.676    -103.219      41.838
  N      220.956     -99.689      45.321
  C      221.432    -100.930      45.077
  N      221.025    -101.818      44.146
  C      220.020    -101.312      43.415
  C      219.415    -100.076      43.560
  C      219.924     -99.238      44.566
  N      219.431     -97.975      44.814
  N      218.398     -99.916      42.643
  C      218.395    -101.033      41.947
  N      219.367    -101.901      42.365
  O      216.519    -102.779      36.432
  O      215.571    -100.855      37.841
  H      218.700    -106.193      42.816
  H      215.567    -102.908      36.263
  H      222.252    -101.251      45.713
  H      217.718    -101.254      41.131
  H      220.710    -103.451      42.114
  H      218.194    -104.061      43.263
  H      217.009    -103.526      41.181
  H      219.225    -105.128      39.794
  H      218.784    -103.498      37.942
  H      219.753     -97.505      45.645
  H      218.573     -97.699      44.349
  H      217.443    -104.624      38.225
  P      215.391    -105.503      41.143
  C      214.737    -107.576      39.775
  O      214.925    -107.039      41.073
  O      214.995    -104.952      39.696
  O      214.876    -104.719      42.300
  H      215.440    -105.444      38.981
  H      214.476    -108.633      39.868
  H      215.660    -107.490      39.192
  H      213.922    -107.052      39.264
  H      219.003     -99.704      35.905
  H      217.323     -99.369      36.247
  H      217.754    -100.712      35.216

 3  4  5  6  7  8  9  10  11  12  22  25  29  30  31  32 0
 6-311+G(2d,p)
 ****
 33  36  37 0
 6-311+G(2d,p)
 ****
 1  2  13  14  15  16  17  18  19  20  21  23  24  26 0
 3-21G
 ****
 27  28  34  35  38  39  40  41  42  43  44  45  46  47  48 0
 3-21G
 ****


