%nproc=1
%NoSave
%Mem=1900MB
#P OB98/GEN NMR

erre ene a

0 1
  C       71.484    -119.025       1.862
  O       70.192    -119.238       1.278
  P       70.127    -119.426      -0.312
  C       69.273    -121.263      -1.959
  O       69.259    -120.738      -0.635
  C       69.055    -122.778      -1.930
  O       70.053    -123.425      -1.114
  C       67.721    -123.183      -1.327
  O       66.678    -122.998      -2.261
  C       67.971    -124.644      -0.957
  O       67.627    -125.528      -2.038
  C       69.491    -124.677      -0.675
  N       69.797    -124.938       0.723
  C       69.897    -126.282       1.086
  O       69.712    -127.172       0.252
  N       70.185    -126.590       2.393
  C       70.327    -125.632       3.266
  N       70.606    -125.998       4.548
  C       70.201    -124.199       2.924
  C       69.936    -123.930       1.651
  O       71.616    -119.869      -0.693
  O       69.704    -118.196      -1.050
  H       68.116    -125.199      -2.812
  H       71.851    -119.532      -1.577
  H       70.317    -123.438       3.686
  H       69.821    -122.902       1.312
  H       69.968    -125.464      -1.276
  H       67.357    -124.948      -0.098
  H       67.525    -122.599      -0.412
  H       69.137    -123.164      -2.956
  H       70.685    -126.986       4.745
  H       70.221    -121.028      -2.449
  H       70.731    -125.336       5.305
  H       68.483    -120.762      -2.544
  P       65.532    -121.944      -1.906
  C       63.232    -121.356      -2.898
  O       64.408    -122.139      -3.037
  O       66.202    -120.552      -2.344
  O       65.046    -121.903      -0.489
  H       65.632    -119.803      -2.084
  H       62.653    -121.429      -3.833
  H       63.493    -120.314      -2.725
  H       62.623    -121.734      -2.076
  H       71.383    -118.916       2.922
  H       71.919    -118.137       1.452
  H       72.115    -119.863       1.648

 3  4  5  6  7  8  9  10  11  12  13  21  23  27  28  29  30  32 0
 6-311+G(2d,p)
 ****
 34  35 0
 6-311+G(2d,p)
 ****
 1  2  14  15  16  17  18  19  20  22  24  25  26 0
 3-21G
 ****
 31  33  36  37  38  39  40  41  42  43  44  45  46 0
 3-21G
 ****


