%nproc=1
%NoSave
%Mem=1900MB
#P OB98/GEN NMR

erre ene a

0 1
  C       10.368     -23.403     -64.962
  O       11.383     -22.421     -64.903
  H       10.125     -23.596     -66.011
  H        9.467     -23.051     -64.452
  H       10.718     -24.331     -64.503
  P       11.818     -21.913     -63.445
  C       10.728     -20.422     -61.617
  O       10.707     -20.860     -62.969
  C        9.815     -19.209     -61.458
  O       10.186     -18.190     -62.418
  C        8.346     -19.500     -61.725
  O        7.702     -20.126     -60.628
  C        7.818     -18.099     -61.982
  O        7.494     -17.421     -60.761
  C        8.999     -17.420     -62.700
  N        8.758     -17.290     -64.135
  C        7.742     -16.411     -64.498
  O        7.079     -15.771     -63.683
  N        7.484     -16.317     -65.839
  C        8.093     -17.040     -66.823
  O        7.774     -16.948     -68.002
  C        9.147     -17.966     -66.379
  C        9.425     -18.052     -65.074
  O       13.102     -21.006     -63.743
  O       12.114     -22.998     -62.464
  H       13.909     -21.474     -63.462
  H        6.749     -17.915     -60.367
  H        6.753     -15.684     -66.123
  H        9.651     -18.557     -67.134
  H       10.190     -18.736     -64.721
  H        9.171     -16.417     -62.291
  H        6.912     -18.128     -62.584
  H        8.236     -20.095     -62.640
  H        9.951     -18.799     -60.449
  H       11.748     -20.138     -61.337
  H       10.403     -21.245     -60.970
  P        6.926     -21.504     -60.904
  C        4.692     -22.074     -62.173
  O        5.538     -21.093     -61.591
  O        6.535     -21.924     -59.411
  O        7.748     -22.500     -61.647
  H        6.450     -21.149     -58.827
  H        3.821     -21.600     -62.576
  H        4.400     -22.782     -61.426
  H        5.218     -22.579     -62.956

 6  7  8  9  10  11  12  13  14  15  16  27  31  32  33  34  35 0
 6-311+G(2d,p)
 ****
 36  37 0
 6-311+G(2d,p)
 ****
 1  2  3  4  5  17  18  19  20  21  22  23  24  25 0
 3-21G
 ****
 26  28  29  30  38  39  40  41  42  43  44  45 0
 3-21G
 ****


