%nproc=1
%NoSave
%Mem=1900MB
#P OB98/GEN NMR

erre ene a

0 1
  C      261.223    -674.689    -148.219
  O      261.787    -673.450    -148.658
  P      261.411    -672.836    -150.092
  C      261.025    -670.487    -149.110
  O      261.727    -671.255    -150.084
  C      261.398    -669.017    -149.100
  O      262.728    -668.812    -148.558
  C      261.367    -668.324    -150.470
  O      260.960    -666.976    -150.225
  C      262.816    -668.389    -150.903
  O      263.135    -667.455    -151.927
  C      263.532    -668.153    -149.560
  N      264.908    -668.634    -149.575
  C      265.827    -667.886    -150.318
  O      265.456    -666.903    -150.977
  N      267.147    -668.285    -150.336
  C      267.495    -669.396    -149.761
  N      268.791    -669.766    -149.834
  C      266.530    -670.260    -149.023
  C      265.273    -669.805    -148.966
  O      260.047    -673.194    -150.584
  O      262.539    -673.426    -151.071
  H      262.746    -666.594    -151.694
  H      262.165    -673.526    -151.970
  H      266.853    -671.194    -148.581
  H      264.495    -670.360    -148.455
  H      263.532    -667.069    -149.311
  H      263.054    -669.394    -151.280
  H      260.702    -668.817    -151.188
  H      260.705    -668.506    -148.416
  H      269.421    -669.162    -150.370
  H      261.235    -670.929    -148.124
  H      269.143    -670.653    -149.512
  H      259.944    -670.603    -149.283
  P      259.836    -666.252    -151.108
  C      258.414    -665.844    -149.018
  O      259.034    -665.262    -150.135
  O      258.967    -667.166    -151.896
  O      260.649    -665.263    -152.079
  H      260.072    -664.991    -152.818
  H      258.097    -665.076    -148.313
  H      259.111    -666.532    -148.493
  H      257.529    -666.424    -149.340
  H      261.596    -674.925    -147.244
  H      261.494    -675.466    -148.902
  H      260.157    -674.602    -148.182

 3  4  5  6  7  8  9  10  11  12  13  23  27  28  29  30  32 0
 6-311+G(2d,p)
 ****
 34  35 0
 6-311+G(2d,p)
 ****
 1  2  14  15  16  17  18  19  20  21  22  24  25  26 0
 3-21G
 ****
 31  33  36  37  38  39  40  41  42  43  44  45  46 0
 3-21G
 ****


