%nproc=1
%NoSave
%Mem=1900MB
#P OB98/GEN NMR

erre ene a

0 1
  C     -198.048     -27.930     264.978
  O     -198.249     -26.555     264.701
  P     -199.668     -26.092     264.115
  C     -199.208     -23.631     264.910
  O     -199.562     -24.511     263.860
  C     -198.499     -22.394     264.350
  O     -197.212     -22.796     263.804
  C     -199.265     -21.673     263.234
  O     -199.004     -20.272     263.377
  C     -198.610     -22.211     261.974
  O     -198.792     -21.358     260.855
  C     -197.155     -22.336     262.440
  N     -196.359     -23.252     261.623
  C     -195.744     -22.740     260.484
  O     -195.848     -21.572     260.116
  N     -195.012     -23.638     259.751
  C     -194.894     -24.975     259.997
  O     -194.239     -25.735     259.295
  C     -195.604     -25.465     261.186
  C     -196.283     -24.597     261.935
  O     -200.594     -26.217     265.413
  O     -200.120     -26.887     262.938
  H     -200.130     -25.981     266.234
  H     -198.111     -21.578     260.194
  H     -194.527     -23.280     258.941
  H     -195.546     -26.525     261.407
  H     -196.815     -24.936     262.815
  H     -196.678     -21.349     262.454
  H     -199.038     -23.189     261.731
  H     -200.341     -21.858     263.278
  H     -198.298     -21.707     265.182
  H     -198.537     -24.143     265.604
  H     -200.110     -23.346     265.463
  P     -200.094     -19.234     262.804
  C     -200.286     -18.353     265.261
  O     -200.252     -18.062     263.883
  O     -201.434     -20.091     263.009
  O     -199.882     -18.819     261.386
  H     -201.503     -20.479     263.896
  H     -200.061     -17.441     265.819
  H     -199.548     -19.115     265.527
  H     -201.285     -18.698     265.539
  H     -197.059     -28.076     265.360
  H     -198.170     -28.497     264.079
  H     -198.763     -28.256     265.704

 3  4  5  6  7  8  9  10  11  12  13  24  28  29  30  31  32 0
 6-311+G(2d,p)
 ****
 33  34 0
 6-311+G(2d,p)
 ****
 1  2  14  15  16  17  18  19  20  21  22  23  25  26  27 0
 3-21G
 ****
 35  36  37  38  39  40  41  42  43  44  45 0
 3-21G
 ****


