%nproc=1
%NoSave
%Mem=1900MB
#P OB98/GEN NMR

erre ene a

0 1
  C       24.930     -54.111     -91.799
  O       23.538     -53.922     -91.928
  H       25.386     -54.009     -92.789
  H       25.151     -55.111     -91.419
  H       25.359     -53.355     -91.138
  P       22.593     -54.204     -90.659
  C       20.668     -52.517     -90.829
  O       21.107     -53.830     -91.161
  C       21.101     -51.498     -91.884
  O       20.683     -51.952     -93.199
  C       20.513     -50.098     -91.671
  O       21.546     -49.121     -91.816
  C       19.493     -49.960     -92.792
  O       19.234     -48.598     -93.119
  C       20.147     -50.807     -93.890
  N       19.213     -51.198     -94.939
  C       19.030     -50.287     -95.984
  O       19.613     -49.202     -95.969
  N       18.164     -50.606     -96.998
  C       17.496     -51.714     -96.949
  N       16.645     -51.967     -97.980
  C       17.622     -52.686     -95.842
  C       18.494     -52.370     -94.885
  O       23.020     -53.528     -89.400
  O       22.543     -55.799     -90.544
  H       20.040     -48.220     -93.535
  H       22.257     -56.054     -89.632
  H       17.035     -53.591     -95.841
  H       18.659     -53.028     -94.038
  H       20.982     -50.265     -94.354
  H       18.546     -50.421     -92.482
  H       20.050     -49.968     -90.695
  H       22.196     -51.470     -91.905
  H       16.589     -51.278     -98.720
  H       21.077     -52.248     -89.849
  H       16.071     -52.795     -98.044
  H       19.573     -52.527     -90.772
  P       22.251     -48.631     -90.459
  C       24.428     -47.886     -91.651
  O       23.326     -47.501     -90.842
  O       23.148     -49.890     -90.041
  O       21.286     -48.255     -89.384
  H       22.703     -50.402     -89.341
  H       25.057     -47.038     -91.824
  H       24.070     -48.262     -92.587
  H       24.988     -48.649     -91.151

 6  7  8  9  10  11  12  13  14  15  16  26  30  31  32  33  35 0
 6-311+G(2d,p)
 ****
 37  38 0
 6-311+G(2d,p)
 ****
 1  2  3  4  5  17  18  19  20  21  22  23  24  25 0
 3-21G
 ****
 27  28  29  34  36  39  40  41  42  43  44  45  46 0
 3-21G
 ****


