%nproc=1
%NoSave
%Mem=1900MB
#P OB98/GEN NMR

erre ene a

0 1
  C     -200.889      41.166    -414.702
  O     -199.920      42.197    -414.745
  P     -199.769      43.220    -413.516
  C     -200.272      45.697    -413.994
  O     -200.824      44.410    -413.727
  C     -199.840      45.801    -415.454
  O     -200.884      45.326    -416.337
  C     -199.547      47.219    -415.916
  O     -198.328      47.712    -415.392
  C     -199.569      47.047    -417.432
  O     -198.321      46.510    -417.904
  C     -200.703      46.003    -417.607
  N     -201.942      46.604    -418.071
  C     -202.063      46.761    -419.453
  O     -201.127      46.479    -420.205
  N     -203.250      47.246    -419.956
  C     -204.173      47.657    -419.140
  N     -205.344      48.070    -419.693
  C     -204.011      47.654    -417.673
  C     -202.892      47.100    -417.211
  O     -198.374      43.661    -413.227
  O     -200.380      42.420    -412.270
  H     -199.749      42.458    -411.531
  H     -198.031      45.858    -417.235
  H     -204.784      48.069    -417.041
  H     -202.702      47.035    -416.145
  H     -200.392      45.225    -418.316
  H     -199.742      47.987    -417.960
  H     -200.368      47.882    -415.616
  H     -198.954      45.162    -415.593
  H     -205.427      48.039    -420.703
  H     -199.408      45.848    -413.338
  H     -206.218      48.093    -419.170
  H     -201.020      46.463    -413.758
  P     -198.138      49.305    -415.372
  C     -196.515      50.351    -417.108
  O     -197.782      49.760    -416.865
  O     -196.757      49.502    -414.577
  O     -199.247      50.056    -414.721
  H     -196.807      50.310    -414.025
  H     -196.294      50.279    -418.176
  H     -195.726      49.837    -416.548
  H     -196.543      51.403    -416.820
  H     -200.839      40.592    -415.603
  H     -201.864      41.597    -414.607
  H     -200.697      40.530    -413.863

 3  4  5  6  7  8  9  10  11  12  13  24  27  28  29  30  32 0
 6-311+G(2d,p)
 ****
 34  35 0
 6-311+G(2d,p)
 ****
 1  2  14  15  16  17  18  19  20  21  22  23  25  26 0
 3-21G
 ****
 31  33  36  37  38  39  40  41  42  43  44  45  46 0
 3-21G
 ****


