%nproc=1
%NoSave
%Mem=1900MB
#P OB98/GEN NMR

erre ene a

0 1
  C       36.018    -114.469      88.614
  O       36.863    -113.618      87.871
  P       36.470    -113.132      86.398
  C       37.236    -110.709      86.821
  O       37.428    -111.889      86.049
  C       38.480    -109.814      86.743
  O       39.544    -110.425      87.536
  C       39.002    -109.641      85.302
  O       39.184    -108.283      84.901
  C       40.257    -110.499      85.296
  O       41.176    -110.165      84.273
  C       40.744    -110.349      86.741
  N       41.723    -111.367      87.111
  C       43.007    -110.929      87.422
  O       43.360    -109.754      87.417
  N       43.924    -111.907      87.692
  C       43.724    -113.249      87.568
  O       44.619    -114.066      87.729
  C       42.358    -113.651      87.197
  C       41.428    -112.712      87.010
  O       35.018    -112.867      86.179
  O       37.070    -114.286      85.463
  H       41.993    -110.676      84.426
  H       38.031    -114.414      85.537
  H       44.858    -111.602      87.919
  H       42.173    -114.708      87.082
  H       40.413    -112.979      86.736
  H       41.186    -109.367      86.913
  H       39.950    -111.538      85.121
  H       38.286    -110.038      84.574
  H       38.224    -108.850      87.189
  H       37.065    -110.993      87.862
  H       36.343    -110.179      86.473
  P       38.562    -107.623      83.582
  C       38.282    -105.198      84.477
  O       38.937    -106.069      83.578
  O       37.121    -107.927      83.339
  O       39.469    -108.218      82.403
  H       38.944    -108.272      81.584
  H       38.250    -104.199      84.036
  H       38.851    -105.151      85.410
  H       37.261    -105.528      84.685
  H       36.463    -114.672      89.566
  H       35.879    -115.387      88.082
  H       35.070    -113.994      88.758

 3  4  5  6  7  8  9  10  11  12  13  23  28  29  30  31  32 0
 6-311+G(2d,p)
 ****
 33  34 0
 6-311+G(2d,p)
 ****
 1  2  14  15  16  17  18  19  20  21  22  24  25  26  27 0
 3-21G
 ****
 35  36  37  38  39  40  41  42  43  44  45 0
 3-21G
 ****


