%nproc=1
%NoSave
%Mem=1900MB
#P OB98/GEN NMR

erre ene a

0 1
  C     -778.896     312.241     318.888
  O     -779.213     312.881     320.112
  P     -780.474     313.878     320.135
  C     -780.835     316.435     320.350
  O     -779.910     315.384     320.134
  C     -780.424     317.278     321.568
  O     -780.670     316.521     322.781
  C     -778.946     317.670     321.562
  O     -778.793     318.970     322.172
  C     -778.305     316.661     322.503
  O     -777.084     317.148     323.044
  C     -779.427     316.464     323.517
  N     -776.282     313.447     326.085
  C     -776.127     314.765     325.728
  N     -774.930     315.336     326.008
  N     -777.061     315.477     325.135
  C     -778.198     314.780     324.899
  C     -778.471     313.463     325.227
  C     -777.429     312.694     325.864
  O     -777.498     311.504     326.189
  N     -779.747     313.119     324.866
  C     -780.237     314.205     324.276
  N     -779.314     315.219     324.250
  O     -781.038     313.695     321.624
  O     -781.526     313.579     319.119
  H     -777.280     317.996     323.502
  H     -781.861     313.164     321.598
  H     -775.531     312.939     326.520
  H     -781.220     314.287     323.848
  H     -779.445     317.285     324.253
  H     -778.090     315.732     321.959
  H     -774.151     314.831     326.403
  H     -778.476     317.684     320.580
  H     -774.773     316.285     325.717
  H     -781.063     318.163     321.607
  H     -781.827     316.013     320.533
  H     -780.892     317.073     319.464
  P     -777.671     319.921     321.532
  C     -775.075     320.014     321.737
  O     -776.264     319.280     321.938
  O     -777.765     321.247     322.431
  O     -777.864     320.204     320.075
  H     -777.445     322.026     321.919
  H     -774.612     320.216     322.697
  H     -775.265     320.969     321.221
  H     -774.395     319.426     321.126
  H     -778.040     311.613     319.025
  H     -778.681     312.980     318.144
  H     -779.727     311.647     318.570

 3  4  5  6  7  8  9  10  11  12  23  26  30  31 0
 6-311+G(2d,p)
 ****
 33  35  36  37  38 0
 6-311+G(2d,p)
 ****
 1  2  13  14  15  16  17  18  19  20  21  22  24  25 0
 3-21G
 ****
 27  28  29  32  34  39  40  41  42  43  44  45  46  47  48  49 0
 3-21G
 ****


