%nproc=1
%NoSave
%Mem=1900MB
#P OB98/GEN NMR

erre ene a

0 1
  C       59.277    -122.628     118.354
  O       60.228    -121.617     118.080
  H       59.382    -123.422     117.610
  H       58.265    -122.217     118.292
  H       59.448    -123.050     119.348
  P       60.243    -120.363     119.079
  C       58.473    -118.598     119.816
  O       58.787    -119.697     118.975
  C       57.286    -117.812     119.244
  O       57.693    -117.207     117.982
  C       56.053    -118.680     118.945
  O       54.886    -117.849     119.080
  C       56.266    -119.022     117.479
  O       55.089    -119.544     116.904
  C       56.765    -117.670     116.974
  N       56.275    -116.684     111.982
  C       55.462    -116.438     113.030
  N       55.666    -116.720     114.333
  C       56.864    -117.298     114.515
  C       57.805    -117.603     113.543
  C       57.472    -117.276     112.218
  N       58.294    -117.533     111.145
  N       58.918    -118.201     114.110
  C       58.651    -118.251     115.402
  N       57.420    -117.726     115.689
  O       61.197    -119.314     118.336
  O       60.705    -120.653     120.467
  H       54.941    -120.470     117.194
  H       62.107    -119.389     118.680
  H       54.518    -115.952     112.790
  H       59.301    -118.663     116.164
  H       55.955    -116.937     116.903
  H       57.037    -119.790     117.367
  H       55.961    -119.547     119.602
  H       57.042    -116.989     119.926
  H       59.353    -117.948     119.881
  H       58.220    -118.964     120.816
  H       57.973    -117.281     110.224
  H       59.180    -117.989     111.304
  P       54.128    -117.789     120.496
  C       52.633    -119.483     121.818
  O       53.718    -119.281     120.925
  O       52.708    -117.161     120.087
  O       54.788    -116.962     121.550
  H       52.336    -116.674     120.848
  H       52.504    -120.531     121.991
  H       51.739    -119.079     121.390
  H       52.838    -118.991     122.746

 6  7  8  9  10  11  12  13  14  15  25  28  32  33  34  35 0
 6-311+G(2d,p)
 ****
 36  37  40 0
 6-311+G(2d,p)
 ****
 1  2  3  4  5  16  17  18  19  20  21  22  23  24 0
 3-21G
 ****
 26  27  29  30  31  38  39 41  42  43  44  45  46  47  48 0
 3-21G
 ****


