%nproc=1
%NoSave
%Mem=1900MB
#P OB98/GEN NMR

erre ene a

0 1
  C     -244.515     256.860    -219.409
  O     -243.645     257.852    -219.913
  H     -244.209     256.566    -218.403
  H     -245.528     257.269    -219.363
  H     -244.517     255.988    -220.068
  P     -242.093     257.464    -220.024
  C     -242.651     256.611    -222.407
  O     -241.967     256.360    -221.187
  C     -242.170     255.639    -223.482
  O     -240.874     256.086    -223.955
  C     -242.029     254.180    -223.011
  O     -242.840     253.320    -223.816
  C     -240.568     253.841    -223.264
  O     -240.378     252.524    -223.780
  C     -240.125     254.904    -224.263
  N     -235.582     253.708    -226.235
  C     -236.830     253.620    -226.747
  N     -237.989     254.054    -226.212
  C     -237.769     254.658    -225.032
  C     -236.555     254.846    -224.394
  C     -235.423     254.321    -225.039
  N     -234.158     254.362    -224.492
  N     -236.729     255.502    -223.191
  C     -238.032     255.669    -223.084
  N     -238.703     255.158    -224.163
  O     -241.827     256.626    -218.684
  O     -241.158     258.620    -220.148
  H     -240.646     251.905    -223.074
  H     -241.016     256.951    -218.251
  H     -236.908     253.127    -227.711
  H     -238.542     256.107    -222.235
  H     -240.351     254.619    -225.297
  H     -240.015     253.926    -222.322
  H     -242.285     254.051    -221.954
  H     -242.861     255.696    -224.332
  H     -242.449     257.634    -222.738
  H     -233.426     253.859    -224.966
  H     -234.051     254.718    -223.553
  H     -243.728     256.504    -222.240
  P     -244.065     252.584    -223.075
  C     -246.042     253.681    -224.365
  O     -245.327     253.575    -223.141
  O     -243.635     252.639    -221.534
  O     -244.304     251.188    -223.541
  H     -244.043     251.899    -221.046
  H     -246.848     254.375    -224.248
  H     -246.433     252.722    -224.634
  H     -245.383     254.026    -225.134

 6  7  8  9  10  11  12  13  14  15  25  28  32  33  34  35 0
 6-311+G(2d,p)
 ****
 36  39  40 0
 6-311+G(2d,p)
 ****
 1  2  3  4  5  16  17  18  19  20  21  22  23  24 0
 3-21G
 ****
 26  27  29  30  31  37  38  41  42  43  44  45  46  47  48 0
 3-21G
 ****


