%nproc=1
%NoSave
%Mem=1900MB
#P OB98/GEN NMR

erre ene a

0 1
  C       -3.230      20.321      31.498
  O       -4.210      19.698      32.313
  P       -3.903      19.367      33.851
  C       -2.745      17.142      33.288
  O       -2.596      18.434      33.865
  C       -1.418      16.385      33.314
  O       -0.435      17.141      32.569
  C       -0.867      16.175      34.719
  O       -0.221      14.901      34.778
  C        0.191      17.254      34.872
  O        1.193      16.869      35.829
  C        0.691      17.392      33.431
  N        3.670      21.231      35.088
  C        3.393      20.019      35.614
  N        2.572      19.059      35.134
  C        2.053      19.431      33.954
  C        2.247      20.633      33.290
  C        3.099      21.565      33.908
  N        3.390      22.796      33.362
  N        1.520      20.666      32.116
  C        0.918      19.499      32.064
  N        1.216      18.713      33.146
  O       -5.057      18.828      34.622
  O       -3.371      20.744      34.460
  H        2.019      17.333      35.583
  H       -3.703      20.863      35.371
  H        3.894      19.789      36.551
  H        0.251      19.179      31.278
  H        1.468      16.653      33.201
  H       -0.276      18.180      35.227
  H       -1.639      16.239      35.494
  H       -1.553      15.425      32.801
  H       -3.069      17.263      32.250
  H        4.105      23.345      33.813
  H        3.107      22.973      32.408
  H       -3.518      16.587      33.830
  P       -0.544      14.008      36.079
  C        1.700      14.636      37.237
  O        0.293      14.692      37.260
  O       -0.312      12.554      35.831
  O       -2.070      14.405      36.357
  H       -2.284      15.292      35.992
  H        2.085      15.120      38.139
  H        2.087      15.171      36.366
  H        2.043      13.598      37.220
  H       -3.621      20.457      30.511
  H       -2.358      19.703      31.454
  H       -2.972      21.272      31.914

 3  4  5  6  7  8  9  10  11  12  22  25  29  30  31  32 0
 6-311+G(2d,p)
 ****
 33  36  37 0
 6-311+G(2d,p)
 ****
 1  2  13  14  15  16  17  18  19  20  21  23  24  26 0
 3-21G
 ****
 27  28  34  35  38  39  40  41  42  43  44  45  46  47  48 0
 3-21G
 ****


