%nproc=1
%NoSave
%Mem=1900MB
#P OB98/GEN NMR

erre ene a

0 1
  C      -13.541     116.362     -88.406
  O      -13.666     115.030     -87.905
  P      -12.891     114.628     -86.561
  C      -11.196     112.944     -87.524
  O      -11.382     114.222     -86.936
  C       -9.750     112.464     -87.339
  O       -8.844     113.225     -88.190
  C       -9.255     112.631     -85.896
  O       -8.335     111.582     -85.554
  C       -8.478     113.931     -85.953
  O       -7.552     114.039     -84.875
  C       -7.845     113.821     -87.338
  N       -4.981     117.987     -86.522
  C       -5.118     116.840     -85.821
  N       -5.881     115.765     -86.112
  C       -6.540     115.949     -87.268
  C       -6.493     117.060     -88.094
  C       -5.672     118.123     -87.678
  N       -5.555     119.303     -88.376
  N       -7.309     116.891     -89.195
  C       -7.877     115.716     -89.008
  N       -7.420     115.096     -87.878
  O      -13.598     113.663     -85.671
  O      -12.694     116.042     -85.831
  H       -7.041     114.858     -85.008
  H      -12.866     115.935     -84.874
  H       -4.542     116.780     -84.901
  H       -8.628     115.279     -89.649
  H       -6.973     113.155     -87.335
  H       -9.169     114.780     -85.898
  H      -10.050     112.658     -85.143
  H       -9.679     111.416     -87.652
  H      -11.440     112.988     -88.589
  H       -5.036     120.051     -87.941
  H       -6.177     119.473     -89.155
  H      -11.909     112.239     -87.082
  P       -8.823     110.558     -84.412
  C       -8.454     112.262     -82.464
  O       -9.354     111.469     -83.207
  O       -7.803     109.526     -84.060
  O      -10.152     109.950     -85.063
  H      -10.781     110.610     -85.401
  H       -9.025     112.897     -81.782
  H       -7.864     112.903     -83.123
  H       -7.789     111.624     -81.875
  H      -14.117     116.461     -89.302
  H      -12.513     116.568     -88.618
  H      -13.900     117.054     -87.673

 3  4  5  6  7  8  9  10  11  12  22  25  29  30  31  32 0
 6-311+G(2d,p)
 ****
 33  36  37 0
 6-311+G(2d,p)
 ****
 1  2  13  14  15  16  17  18  19  20  21  23  24  26 0
 3-21G
 ****
 27  28  34  35  38  39  40  41  42  43  44  45  46  47  48 0
 3-21G
 ****


