%nproc=1
%NoSave
%Mem=1900MB
#P OB98/GEN NMR

erre ene a

0 1
  C     -134.119    -228.171      29.906
  O     -132.904    -228.898      29.947
  H     -134.401    -227.990      28.866
  H     -134.901    -228.767      30.386
  H     -134.018    -227.223      30.438
  P     -131.558    -228.108      29.575
  C     -130.509    -230.258      28.567
  O     -130.389    -229.209      29.518
  C     -130.023    -231.582      29.166
  O     -128.592    -231.481      29.414
  C     -130.705    -231.962      30.491
  O     -130.914    -233.370      30.506
  C     -129.649    -231.612      31.536
  O     -129.788    -232.363      32.734
  C     -128.364    -231.905      30.767
  N     -123.895    -232.561      33.110
  C     -124.672    -233.407      32.397
  N     -125.829    -233.133      31.761
  C     -126.127    -231.827      31.850
  C     -125.429    -230.846      32.541
  C     -124.268    -231.268      33.208
  N     -123.506    -230.427      33.998
  N     -126.095    -229.630      32.451
  C     -127.172    -229.883      31.738
  N     -127.242    -231.194      31.360
  O     -131.252    -227.303      30.929
  O     -131.657    -227.203      28.393
  H     -129.197    -231.989      33.413
  H     -131.721    -226.446      30.912
  H     -124.325    -234.442      32.342
  H     -127.948    -229.165      31.503
  H     -128.108    -232.970      30.754
  H     -129.726    -230.542      31.783
  H     -131.652    -231.437      30.671
  H     -130.164    -232.370      28.420
  H     -129.896    -230.020      27.689
  H     -122.755    -230.844      34.529
  H     -123.828    -229.486      34.164
  H     -131.555    -230.343      28.251
  P     -132.295    -233.907      31.127
  C     -131.943    -236.452      31.572
  O     -132.479    -235.446      30.716
  O     -133.409    -233.154      30.251
  O     -132.456    -233.616      32.588
  H     -134.199    -232.967      30.792
  H     -132.149    -237.418      31.160
  H     -132.393    -236.374      32.540
  H     -130.885    -236.319      31.659

 6  7  8  9  10  11  12  13  14  15  25  28  32  33  34  35 0
 6-311+G(2d,p)
 ****
 36  39  40 0
 6-311+G(2d,p)
 ****
 1  2  3  4  5  16  17  18  19  20  21  22  23  24 0
 3-21G
 ****
 26  27  29  30  31  37  38  41  42  43  44  45  46  47 0
 3-21G
 ****
 48 0
 3-21G
 ****


