%nproc=1
%NoSave
%Mem=1900MB
#P OB98/GEN NMR

erre ene a

0 1
  C       34.910    -272.031     160.189
  O       34.785    -273.386     159.778
  P       35.956    -274.406     160.183
  C       37.694    -273.403     158.514
  O       36.923    -274.528     158.907
  C       38.356    -273.653     157.154
  O       39.005    -272.422     156.725
  C       39.425    -274.757     157.152
  O       39.384    -275.371     155.857
  C       40.722    -273.977     157.308
  O       41.858    -274.708     156.855
  C       40.397    -272.728     156.492
  N       44.686    -270.199     155.558
  C       44.219    -271.386     155.010
  N       44.979    -271.934     154.033
  N       43.113    -271.971     155.383
  C       42.451    -271.292     156.358
  C       42.829    -270.137     157.005
  C       44.035    -269.478     156.555
  O       44.442    -268.388     156.948
  N       41.946    -269.802     157.993
  C       40.995    -270.705     157.895
  N       41.230    -271.603     156.884
  O       35.205    -275.815     160.227
  O       36.675    -274.097     161.463
  H       41.839    -275.589     157.292
  H       34.905    -276.027     161.133
  H       45.535    -269.785     155.214
  H       40.112    -270.764     158.516
  H       40.540    -272.886     155.411
  H       40.879    -273.724     158.364
  H       45.825    -271.521     153.675
  H       39.284    -275.499     157.937
  H       44.641    -272.788     153.593
  H       37.573    -273.879     156.426
  H       38.482    -273.238     159.258
  H       37.056    -272.511     158.478
  P       39.143    -276.958     155.790
  C       41.709    -277.309     155.705
  O       40.446    -277.616     155.145
  O       38.045    -277.095     154.625
  O       38.652    -277.573     157.065
  H       37.465    -277.857     154.807
  H       42.418    -278.101     155.449
  H       41.659    -277.222     156.800
  H       42.074    -276.361     155.288
  H       34.061    -271.475     159.849
  H       35.801    -271.612     159.770
  H       34.962    -271.985     161.257

 3  4  5  6  7  8  9  10  11  12  23  26  30  31 0
 6-311+G(2d,p)
 ****
 33  35  36  37  38 0
 6-311+G(2d,p)
 ****
 1  2  13  14  15  16  17  18  19  20  21  22  24  25 0
 3-21G
 ****
 27  28  29  32  34  39  40  41  42  43  44  45  46  47  48  49 0
 3-21G
 ****


