%nproc=1
%NoSave
%Mem=1900MB
#P OB98/GEN NMR

erre ene a

0 1
  C     -293.192    -175.037    -303.827
  O     -292.455    -175.300    -305.029
  P     -290.857    -175.334    -304.942
  C     -290.215    -175.538    -307.455
  O     -290.306    -176.174    -306.190
  C     -290.488    -176.542    -308.580
  O     -291.906    -176.679    -308.834
  C     -289.861    -176.154    -309.911
  O     -288.493    -176.538    -309.976
  C     -290.680    -176.999    -310.876
  O     -290.193    -178.351    -310.883
  C     -292.080    -176.931    -310.253
  N     -296.523    -175.952    -312.468
  C     -296.014    -177.141    -311.987
  N     -296.806    -178.225    -312.106
  N     -294.831    -177.252    -311.441
  C     -294.157    -176.084    -311.369
  C     -294.559    -174.841    -311.813
  C     -295.858    -174.728    -312.429
  O     -296.357    -173.708    -312.892
  N     -293.595    -173.895    -311.573
  C     -292.624    -174.554    -310.966
  N     -292.912    -175.891    -310.835
  O     -290.586    -176.320    -303.706
  O     -290.223    -173.996    -304.731
  H     -289.247    -178.311    -311.128
  H     -289.738    -176.092    -303.282
  H     -297.439    -175.920    -312.893
  H     -291.705    -174.110    -310.613
  H     -292.628    -177.879    -310.357
  H     -290.613    -176.632    -311.908
  H     -297.748    -178.202    -312.474
  H     -290.004    -175.090    -310.124
  H     -296.461    -179.101    -311.727
  H     -290.096    -177.521    -308.263
  H     -289.228    -175.089    -307.588
  H     -290.923    -174.699    -307.481
  P     -287.418    -175.426    -310.403
  C     -286.076    -176.981    -311.981
  O     -286.091    -176.215    -310.797
  O     -287.066    -174.724    -309.005
  O     -287.916    -174.437    -311.408
  H     -286.847    -173.785    -309.153
  H     -285.052    -177.312    -312.172
  H     -286.417    -176.386    -312.834
  H     -286.712    -177.859    -311.868
  H     -294.240    -175.046    -304.042
  H     -292.915    -174.078    -303.442
  H     -292.970    -175.791    -303.101

 3  4  5  6  7  8  9  10  11  12  23  26  30  31 0
 6-311+G(2d,p)
 ****
 33  35  36  37  38 0
 6-311+G(2d,p)
 ****
 1  2  13  14  15  16  17  18  19  20  21  22  24  25 0
 3-21G
 ****
 27  28  29  32  34  39  40  41  42  43  44  45  46  47  48  49 0
 3-21G
 ****


