%nproc=1
%NoSave
%Mem=1900MB
#P OB98/GEN NMR

erre ene a

0 1
  C       19.686      17.528      52.946
  O       20.894      18.257      52.884
  P       21.141      19.551      53.797
  C       20.446      20.905      51.725
  O       20.284      20.730      53.124
  C       20.709      22.371      51.374
  O       19.518      23.158      51.653
  C       21.876      23.011      52.137
  O       22.477      23.949      51.238
  C       21.170      23.735      53.267
  O       21.972      24.750      53.855
  C       19.903      24.221      52.551
  N       18.841      24.561      53.489
  C       18.815      25.876      53.959
  O       19.706      26.667      53.642
  N       17.814      26.253      54.820
  C       16.978      25.364      55.254
  N       16.005      25.796      56.101
  C       17.047      23.939      54.882
  C       17.983      23.613      53.995
  O       22.572      19.883      54.054
  O       20.311      19.237      55.128
  H       22.771      24.328      54.239
  H       20.803      18.596      55.698
  H       16.362      23.225      55.314
  H       18.110      22.593      53.660
  H       20.121      25.106      51.938
  H       20.908      23.019      54.055
  H       22.614      22.291      52.495
  H       20.891      22.431      50.294
  H       15.985      26.785      56.318
  H       19.522      20.588      51.235
  H       15.257      25.205      56.431
  H       21.256      20.267      51.359
  P       24.036      24.306      51.328
  C       23.666      26.645      52.297
  O       24.208      25.357      52.522
  O       24.666      24.715      50.036
  O       24.715      22.976      51.911
  H       25.678      23.012      51.762
  H       23.589      27.171      53.253
  H       22.672      26.580      51.846
  H       24.328      27.209      51.634
  H       19.729      16.708      52.260
  H       18.869      18.168      52.686
  H       19.545      17.155      53.939

 3  4  5  6  7  8  9  10  11  12  13  23  27  28  29  30  32 0
 6-311+G(2d,p)
 ****
 34  35 0
 6-311+G(2d,p)
 ****
 1  2  14  15  16  17  18  19  20  21  22  24  25  26 0
 3-21G
 ****
 31  33  36  37  38  39  40  41  42  43  44  45  46 0
 3-21G
 ****


