%nproc=1
%NoSave
%Mem=1900MB
#P OB98/GEN NMR

erre ene a

0 1
  C       23.681      29.336    -159.519
  O       22.684      28.467    -160.015
  P       21.359      28.152    -159.172
  C       20.937      26.684    -157.094
  O       21.842      27.564    -157.753
  C       21.277      26.588    -155.603
  O       21.279      27.937    -155.037
  C       20.257      25.744    -154.807
  O       20.840      24.702    -154.018
  C       19.482      26.796    -154.030
  O       18.815      26.295    -152.891
  C       20.560      27.862    -153.789
  N       19.996      29.150    -153.392
  C       20.177      29.541    -152.067
  O       20.785      28.883    -151.224
  N       19.577      30.713    -151.699
  C       18.735      31.459    -152.471
  O       18.151      32.446    -152.045
  C       18.549      30.974    -153.850
  C       19.192      29.875    -154.251
  O       20.342      27.313    -159.870
  O       20.833      29.611    -158.765
  H       18.400      27.049    -152.428
  H       21.458      30.139    -158.237
  H       19.700      31.008    -150.741
  H       17.877      31.540    -154.481
  H       19.073      29.495    -155.260
  H       21.270      27.543    -153.023
  H       18.711      27.205    -154.698
  H       19.576      25.215    -155.482
  H       22.286      26.174    -155.519
  H       21.018      25.691    -157.544
  H       19.906      27.030    -157.246
  P       20.291      23.202    -153.927
  C       18.132      22.050    -153.045
  O       18.926      23.217    -153.093
  O       21.290      22.186    -153.485
  O       19.799      22.893    -155.422
  H       19.880      21.940    -155.600
  H       17.087      22.344    -152.906
  H       18.439      21.440    -152.190
  H       18.219      21.464    -153.965
  H       24.476      29.410    -160.231
  H       24.063      28.951    -158.597
  H       23.259      30.305    -159.354

 3  4  5  6  7  8  9  10  11  12  13  23  28  29  30  31  32 0
 6-311+G(2d,p)
 ****
 33  34 0
 6-311+G(2d,p)
 ****
 1  2  14  15  16  17  18  19  20  21  22  24  25  26  27 0
 3-21G
 ****
 35  36  37  38  39  40  41  42  43  44  45 0
 3-21G
 ****


