%nproc=1
%NoSave
%Mem=1900MB
#P OB98/GEN NMR

erre ene a

0 1
  C     -327.131    -363.066     249.213
  O     -328.172    -362.239     248.725
  H     -327.574    -363.879     249.795
  H     -326.474    -362.483     249.860
  H     -326.557    -363.496     248.384
  P     -327.784    -361.186     247.577
  C     -327.703    -359.007     248.987
  O     -328.411    -359.776     248.025
  C     -328.036    -357.525     248.831
  O     -327.355    -356.747     249.843
  C     -327.629    -356.930     247.486
  O     -328.611    -357.181     246.485
  C     -327.577    -355.450     247.835
  O     -328.918    -354.917     247.903
  C     -326.959    -355.479     249.241
  N     -322.998    -352.401     250.012
  C     -324.354    -352.124     250.010
  N     -324.701    -350.835     250.242
  N     -325.285    -353.017     249.800
  C     -324.786    -354.258     249.562
  C     -323.470    -354.656     249.527
  C     -322.452    -353.660     249.780
  O     -321.239    -353.862     249.805
  N     -323.356    -355.992     249.256
  C     -324.603    -356.399     249.101
  N     -325.509    -355.381     249.269
  O     -328.711    -361.641     246.352
  O     -326.345    -361.166     247.192
  H     -329.453    -355.553     248.414
  H     -328.166    -362.136     245.712
  H     -322.324    -351.672     250.168
  H     -324.898    -357.412     248.871
  H     -327.346    -354.680     249.881
  H     -327.036    -354.859     247.096
  H     -324.034    -350.094     250.387
  H     -326.633    -357.267     247.169
  H     -325.688    -350.607     250.245
  H     -329.113    -357.404     248.997
  H     -326.627    -359.157     248.841
  H     -327.982    -359.347     249.990
  P     -328.135    -357.865     245.115
  C     -326.386    -356.048     244.512
  O     -327.602    -356.688     244.156
  O     -329.523    -358.302     244.440
  O     -327.217    -359.033     245.267
  H     -329.597    -359.274     244.433
  H     -326.156    -355.292     243.790
  H     -325.597    -356.770     244.536
  H     -326.489    -355.599     245.478

 6  7  8  9  10  11  12  13  14  15  26  29  33  34 0
 6-311+G(2d,p)
 ****
 36  38  39  40  41 0
 6-311+G(2d,p)
 ****
 1  2  3  4  5  16  17  18  19  20  21  22  23  24  25 0
 3-21G
 ****
 27  28  30  31  32  35  37  42  43  44  45  46  47 0
 3-21G
 ****
 48  49 0
 3-21G
 ****


