%nproc=1
%NoSave
%Mem=1900MB
#P OB98/GEN NMR

erre ene a

0 1
  C       58.922    -684.188      -6.767
  O       59.706    -684.082      -7.939
  H       59.527    -684.569      -5.943
  H       58.560    -683.187      -6.498
  H       58.066    -684.839      -6.943
  P       60.352    -685.452      -8.486
  C       60.455    -684.798     -10.993
  O       61.187    -685.078      -9.814
  C       61.390    -684.654     -12.180
  O       61.920    -683.294     -12.189
  C       62.589    -685.630     -12.170
  O       62.708    -686.307     -13.429
  C       63.803    -684.724     -11.971
  O       64.955    -685.203     -12.650
  C       63.319    -683.401     -12.525
  N       67.882    -681.119     -12.425
  C       67.323    -681.956     -13.310
  N       66.071    -682.464     -13.341
  C       65.356    -681.964     -12.320
  C       65.765    -681.083     -11.332
  C       67.115    -680.670     -11.398
  N       67.682    -679.856     -10.442
  N       64.748    -680.818     -10.430
  C       63.746    -681.555     -10.837
  N       64.058    -682.281     -11.968
  O       59.079    -686.248      -9.054
  O       61.083    -686.243      -7.463
  H       65.687    -684.576     -12.479
  H       58.991    -687.088      -8.558
  H       67.974    -682.297     -14.122
  H       62.781    -681.646     -10.349
  H       63.395    -683.359     -13.617
  H       64.034    -684.652     -10.899
  H       62.507    -686.372     -11.358
  H       60.820    -684.773     -13.109
  H       59.896    -683.859     -10.858
  H       68.691    -679.702     -10.508
  H       67.169    -679.605      -9.623
  H       59.734    -685.608     -11.168
  P       62.057    -687.774     -13.511
  C       60.199    -687.228     -15.251
  O       61.414    -687.933     -14.966
  O       60.799    -687.656     -12.528
  O       62.986    -688.882     -13.085
  H       60.844    -688.358     -11.834
  H       59.895    -687.433     -16.256
  H       60.361    -686.177     -15.134
  H       59.434    -687.548     -14.575

 6  7  8  9  10  11  12  13  14  15  25  28  32  33  34  35 0
 6-311+G(2d,p)
 ****
 36  39  40 0
 6-311+G(2d,p)
 ****
 1  2  3  4  5  16  17  18  19  20  21  22  23  24 0
 3-21G
 ****
 26  27  29  30  31  37  38  41  42  43  44  45  46  47  48 0
 3-21G
 ****


