%nproc=1
%NoSave
%Mem=1900MB
#P OB98/GEN NMR

erre ene a

0 1
  C      -86.602    -835.717      60.060
  O      -87.131    -834.500      59.564
  H      -87.399    -836.268      60.567
  H      -85.803    -835.501      60.778
  H      -86.202    -836.339      59.250
  P      -86.332    -833.722      58.422
  C      -83.994    -832.628      58.264
  O      -85.083    -832.977      59.112
  C      -82.835    -832.012      59.054
  O      -82.432    -832.893      60.116
  C      -81.597    -831.801      58.176
  O      -81.578    -830.601      57.429
  C      -80.477    -831.798      59.223
  O      -80.312    -830.488      59.797
  C      -80.997    -832.781      60.279
  N      -76.793    -835.612      60.916
  C      -76.956    -834.258      61.077
  N      -75.838    -833.550      61.390
  N      -78.102    -833.640      60.918
  C      -79.099    -834.455      60.528
  C      -79.062    -835.815      60.322
  C      -77.802    -836.493      60.544
  O      -77.595    -837.702      60.410
  N      -80.282    -836.312      59.914
  C      -81.033    -835.235      59.797
  N      -80.379    -834.097      60.182
  O      -87.300    -832.496      58.057
  O      -86.003    -834.529      57.200
  H      -79.676    -830.558      60.536
  H      -87.139    -832.209      57.137
  H      -75.889    -836.037      61.079
  H      -82.076    -835.237      59.474
  H      -80.820    -832.412      61.296
  H      -79.518    -832.075      58.786
  H      -74.918    -833.959      61.400
  H      -81.441    -832.658      57.510
  H      -75.867    -832.542      61.247
  H      -83.168    -831.076      59.514
  H      -84.378    -831.913      57.537
  H      -83.649    -833.514      57.706
  P      -80.816    -830.550      56.016
  C      -78.432    -831.205      55.212
  O      -79.287    -830.918      56.296
  O      -80.790    -828.973      55.694
  O      -81.472    -831.322      54.926
  H      -81.519    -828.736      55.105
  H      -77.452    -831.428      55.580
  H      -78.384    -830.357      54.561
  H      -78.811    -832.047      54.672

 6  7  8  9  10  11  12  13  14  15  26  29  33  34 0
 6-311+G(2d,p)
 ****
 36  38  39  40  41 0
 6-311+G(2d,p)
 ****
 1  2  3  4  5  16  17  18  19  20  21  22  23  24  25 0
 3-21G
 ****
 27  28  30  31  32  35  37  42  43  44  45  46  47 0
 3-21G
 ****
 48  49 0
 3-21G
 ****


