%nproc=1
%NoSave
%Mem=1900MB
#P OB98/GEN NMR

erre ene a

0 1
  C       16.557     774.981     288.737
  O       16.520     773.841     287.905
  H       17.000     774.704     289.697
  H       15.539     775.345     288.912
  H       17.157     775.777     288.285
  P       16.092     774.077     286.375
  C       16.288     771.509     286.039
  O       15.506     772.680     285.840
  C       15.473     770.263     285.695
  O       14.316     770.160     286.564
  C       14.938     770.235     284.263
  O       15.917     769.787     283.338
  C       13.800     769.236     284.405
  O       14.339     767.899     284.444
  C       13.219     769.613     285.774
  N        8.347     770.373     284.587
  C        9.106     769.227     284.512
  N        8.490     768.118     284.038
  N       10.370     769.157     284.857
  C       10.864     770.348     285.299
  C       10.202     771.552     285.422
  C        8.805     771.602     285.049
  O        8.074     772.590     285.120
  N       11.027     772.522     285.925
  C       12.187     771.922     286.073
  N       12.143     770.589     285.707
  O       17.499     774.198     285.610
  O       15.236     775.273     286.126
  H       13.583     767.290     284.555
  H       17.409     774.852     284.892
  H        7.379     770.365     284.298
  H       13.091     772.388     286.452
  H       12.830     768.746     286.312
  H       13.102     769.279     283.569
  H        7.536     768.109     283.703
  H       14.523     771.219     283.975
  H        9.023     767.256     284.000
  H       16.100     769.382     285.884
  H       16.602     771.456     287.085
  H       17.182     771.570     285.407
  P       16.056     770.585     281.947
  C       16.703     768.381     280.715
  O       15.801     769.491     280.800
  O       17.623     770.869     281.848
  O       15.247     771.837     281.858
  H       17.793     771.641     281.260
  H       16.408     767.742     279.909
  H       16.680     767.831     281.633
  H       17.695     768.740     280.540

 6  7  8  9  10  11  12  13  14  15  26  29  33  34 0
 6-311+G(2d,p)
 ****
 36  38  39  40  41 0
 6-311+G(2d,p)
 ****
 1  2  3  4  5  16  17  18  19  20  21  22  23  24  25 0
 3-21G
 ****
 27  28  30  31  32  35  37  42  43  44  45  46  47 0
 3-21G
 ****
 48  49 0
 3-21G
 ****


