%nproc=1
%NoSave
%Mem=1900MB
#P OB98/GEN NMR

erre ene a

0 1
  C     -285.816      44.866      92.080
  O     -284.726      44.469      91.273
  H     -286.734      44.792      91.491
  H     -285.689      45.901      92.406
  H     -285.900      44.208      92.948
  P     -283.267      44.560      91.932
  C     -283.339      42.194      93.003
  O     -283.282      43.597      93.215
  C     -282.352      41.496      93.931
  O     -282.439      40.063      93.755
  C     -280.894      41.848      93.667
  O     -280.539      43.107      94.209
  C     -280.189      40.691      94.354
  O     -280.039      40.928      95.763
  C     -281.150      39.511      94.089
  N     -280.651      38.618      93.049
  C     -279.438      37.994      93.321
  O     -278.807      38.172      94.363
  N     -278.946      37.186      92.332
  C     -279.519      36.974      91.113
  O     -278.992      36.295      90.243
  C     -280.809      37.648      90.888
  C     -281.304      38.434      91.848
  O     -283.243      46.032      92.560
  O     -282.133      44.330      90.990
  H     -282.723      46.628      91.989
  H     -280.909      41.240      96.081
  H     -278.061      36.735      92.506
  H     -281.295      37.496      89.932
  H     -282.244      38.957      91.696
  H     -281.288      38.920      95.003
  H     -279.188      40.535      93.953
  H     -280.681      41.803      92.592
  H     -282.624      41.732      94.968
  H     -283.072      41.972      91.964
  H     -284.360      41.846      93.186
  P     -279.177      43.797      93.714
  C     -280.635      45.628      92.520
  O     -279.562      44.708      92.449
  O     -278.412      42.548      93.075
  O     -278.436      44.506      94.794
  H     -279.009      41.921      92.636
  H     -280.732      46.136      91.583
  H     -280.443      46.341      93.294
  H     -281.542      45.103      92.736

 6  7  8  9  10  11  12  13  14  15  16  27  31  32  33  34  35 0
 6-311+G(2d,p)
 ****
 36  37 0
 6-311+G(2d,p)
 ****
 1  2  3  4  5  17  18  19  20  21  22  23  24  25 0
 3-21G
 ****
 26  28  29  30  38  39  40  41  42  43  44  45 0
 3-21G
 ****


