%nproc=1
%NoSave
%Mem=1900MB
#P OB98/GEN NMR

erre ene a

0 1
  C      191.250    -291.472     432.855
  O      192.413    -292.286     432.814
  H      190.831    -291.412     431.844
  H      191.498    -290.459     433.186
  H      190.505    -291.911     433.524
  P      193.302    -292.397     434.145
  C      194.866    -290.618     433.105
  O      194.109    -291.020     434.243
  C      196.283    -290.225     433.526
  O      196.234    -289.219     434.558
  C      197.074    -291.387     434.114
  O      197.527    -292.260     433.095
  C      198.160    -290.640     434.862
  O      199.205    -290.207     433.977
  C      197.375    -289.432     435.426
  N      196.953    -289.627     436.808
  C      197.974    -289.715     437.760
  O      199.153    -289.627     437.416
  N      197.630    -289.930     439.071
  C      196.378    -290.025     439.410
  N      196.113    -290.237     440.729
  C      195.271    -289.920     438.447
  C      195.624    -289.727     437.174
  O      194.157    -293.623     434.282
  O      192.228    -292.278     435.328
  H      198.753    -289.732     433.248
  H      191.887    -293.160     435.573
  H      194.244    -290.006     438.769
  H      194.869    -289.637     436.399
  H      197.986    -288.519     435.378
  H      198.616    -291.260     435.630
  H      196.466    -291.926     434.848
  H      196.798    -289.793     432.657
  H      196.902    -290.313     441.354
  H      194.352    -289.755     432.664
  H      195.178    -290.238     441.119
  H      194.905    -291.422     432.359
  P      197.669    -293.831     433.367
  C      200.021    -294.056     432.316
  O      199.250    -294.092     433.522
  O      196.968    -294.720     432.398
  O      197.141    -293.987     434.877
  H      196.153    -293.905     434.922
  H      201.050    -294.242     432.545
  H      199.926    -293.093     431.860
  H      199.664    -294.806     431.642

 6  7  8  9  10  11  12  13  14  15  16  26  30  31  32  33  35 0
 6-311+G(2d,p)
 ****
 37  38 0
 6-311+G(2d,p)
 ****
 1  2  3  4  5  17  18  19  20  21  22  23  24  25 0
 3-21G
 ****
 27  28  29  34  36  39  40  41  42  43  44  45  46 0
 3-21G
 ****


