%nproc=1
%NoSave
%Mem=1900MB
#P OB98/GEN NMR

erre ene a

0 1
  C       65.967     -52.886     -24.614
  O       65.659     -51.596     -24.123
  H       66.770     -53.310     -24.005
  H       66.308     -52.818     -25.650
  H       65.091     -53.539     -24.550
  P       64.380     -50.867     -24.765
  C       62.805     -49.088     -23.648
  O       64.119     -49.572     -23.856
  C       62.837     -47.676     -23.058
  O       63.529     -47.721     -21.785
  C       63.554     -46.657     -23.945
  O       62.891     -45.398     -23.813
  C       64.937     -46.562     -23.321
  O       65.586     -45.334     -23.636
  C       64.609     -46.766     -21.834
  N       65.765     -47.220     -21.065
  C       66.121     -46.452     -19.952
  O       65.481     -45.439     -19.667
  N       67.215     -46.821     -19.213
  C       67.935     -47.832     -19.590
  N       69.022     -48.131     -18.830
  C       67.624     -48.644     -20.782
  C       66.532     -48.292     -21.460
  O       63.196     -51.863     -24.358
  O       64.490     -50.606     -26.230
  H       65.569     -45.213     -24.611
  H       63.245     -52.165     -23.436
  H       68.259     -49.471     -21.062
  H       66.224     -48.838     -22.343
  H       64.246     -45.830     -21.389
  H       65.570     -47.379     -23.685
  H       63.581     -46.953     -24.995
  H       61.808     -47.363     -22.850
  H       69.212     -47.535     -18.034
  H       62.258     -49.751     -22.971
  H       69.682     -48.859     -19.059
  H       62.288     -49.085     -24.613
  P       61.838     -44.941     -24.929
  C       59.872     -43.266     -24.792
  O       61.255     -43.497     -24.549
  O       60.818     -45.959     -25.312
  O       62.784     -44.605     -26.186
  H       62.341     -44.942     -26.990
  H       59.619     -42.270     -24.495
  H       59.289     -43.965     -24.229
  H       59.668     -43.390     -25.835

 6  7  8  9  10  11  12  13  14  15  16  26  30  31  32  33  35 0
 6-311+G(2d,p)
 ****
 37  38 0
 6-311+G(2d,p)
 ****
 1  2  3  4  5  17  18  19  20  21  22  23  24  25 0
 3-21G
 ****
 27  28  29  34  36  39  40  41  42  43  44  45  46 0
 3-21G
 ****


