%nproc=1
%NoSave
%Mem=1900MB
#P OB98/GEN NMR

erre ene a

0 1
  C      -22.937     439.597    -572.770
  O      -22.936     440.915    -572.261
  H      -23.745     439.034    -572.288
  H      -21.987     439.111    -572.538
  H      -23.104     439.603    -573.847
  P      -21.944     441.965    -572.963
  C      -20.136     441.215    -571.210
  O      -20.463     441.488    -572.557
  C      -18.698     440.686    -571.095
  O      -17.910     441.263    -572.175
  C      -18.012     441.048    -569.773
  O      -17.162     439.958    -569.398
  C      -17.168     442.254    -570.135
  O      -16.078     442.431    -569.236
  C      -16.773     441.921    -571.587
  N      -16.386     443.108    -572.342
  C      -15.149     443.688    -572.019
  O      -14.451     443.196    -571.128
  N      -14.755     444.820    -572.684
  C      -15.547     445.370    -573.553
  N      -15.107     446.502    -574.156
  C      -16.874     444.823    -573.883
  C      -17.227     443.697    -573.267
  O      -22.175     443.279    -572.085
  O      -22.178     442.144    -574.427
  H      -15.524     443.184    -569.559
  H      -22.199     443.108    -571.130
  H      -17.509     445.326    -574.612
  H      -18.176     443.223    -573.458
  H      -15.932     441.209    -571.603
  H      -17.775     443.164    -570.111
  H      -18.731     441.255    -568.965
  H      -18.717     439.609    -571.252
  H      -14.195     446.857    -573.880
  H      -20.833     440.477    -570.792
  H      -15.659     447.048    -574.803
  H      -20.250     442.136    -570.636
  P      -17.778     438.688    -568.648
  C      -17.748     440.073    -566.467
  O      -18.486     439.173    -567.289
  O      -16.886     437.507    -568.516
  O      -19.052     438.327    -569.576
  H      -19.098     437.353    -569.651
  H      -18.324     440.318    -565.599
  H      -17.535     440.966    -567.017
  H      -16.831     439.611    -566.167

 6  7  8  9  10  11  12  13  14  15  16  26  30  31  32  33  35 0
 6-311+G(2d,p)
 ****
 37  38 0
 6-311+G(2d,p)
 ****
 1  2  3  4  5  17  18  19  20  21  22  23  24  25 0
 3-21G
 ****
 27  28  29  34  36  39  40  41  42  43  44  45  46 0
 3-21G
 ****


