%nproc=1
%NoSave
%Mem=1900MB
#P OB98/GEN NMR

erre ene a

0 1
  C      182.494    -957.313       2.911
  O      182.071    -958.508       3.554
  P      181.629    -959.736       2.613
  C      179.220    -959.602       3.580
  O      180.046    -959.582       2.417
  C      177.746    -959.634       3.188
  O      177.342    -958.361       2.652
  C      177.398    -960.652       2.114
  O      177.228    -961.956       2.652
  C      176.069    -960.105       1.619
  O      175.021    -960.472       2.524
  C      176.302    -958.595       1.661
  N      174.720    -957.308      -3.030
  C      174.085    -957.908      -1.999
  N      174.586    -958.226      -0.781
  C      175.883    -957.894      -0.696
  C      176.670    -957.317      -1.680
  C      176.038    -957.001      -2.891
  N      176.682    -956.358      -3.931
  N      177.953    -957.124      -1.217
  C      177.943    -957.579       0.021
  N      176.712    -958.043       0.386
  O      181.752    -960.995       3.594
  O      182.437    -959.904       1.370
  H      174.223    -959.959       2.269
  H      181.873    -961.805       3.074
  H      173.044    -958.158      -2.171
  H      178.795    -957.582       0.684
  H      175.407    -958.049       1.993
  H      175.785    -960.495       0.631
  H      178.126    -960.632       1.292
  H      177.150    -959.811       4.099
  H      179.412    -958.700       4.170
  H      176.114    -956.008      -4.687
  H      177.590    -955.951      -3.745
  H      179.473    -960.477       4.175
  P      177.082    -963.147       1.595
  C      174.685    -963.386       2.583
  O      175.504    -963.383       1.429
  O      177.568    -964.436       2.422
  O      177.857    -962.964       0.330
  H      177.908    -965.118       1.825
  H      173.641    -963.233       2.278
  H      174.961    -962.573       3.262
  H      174.766    -964.343       3.092
  H      182.757    -956.585       3.649
  H      181.699    -956.934       2.304
  H      183.345    -957.521       2.296

 3  4  5  6  7  8  9  10  11  12  22  25  29  30  31  32 0
 6-311+G(2d,p)
 ****
 33  36  37 0
 6-311+G(2d,p)
 ****
 1  2  13  14  15  16  17  18  19  20  21  23  24  26 0
 3-21G
 ****
 27  28  34  35  38  39  40  41  42  43  44  45  46  47  48 0
 3-21G
 ****


