%nproc=1
%NoSave
%Mem=1900MB
#P OB98/GEN NMR

erre ene a

0 1
  C      -73.221      56.312     300.241
  O      -73.488      55.255     301.142
  H      -72.963      57.205     300.817
  H      -74.105      56.527     299.635
  H      -72.375      56.052     299.598
  P      -73.924      53.852     300.495
  C      -76.220      54.092     301.670
  O      -75.526      53.920     300.440
  C      -77.369      55.082     301.501
  O      -76.864      56.372     301.118
  C      -78.386      54.688     300.439
  O      -79.330      53.770     300.970
  C      -79.028      56.034     300.138
  O      -80.016      56.333     301.143
  C      -77.844      57.009     300.259
  N      -74.901      60.474     297.874
  C      -75.504      60.489     299.081
  N      -76.316      59.560     299.629
  C      -76.479      58.517     298.795
  C      -75.929      58.365     297.532
  C      -75.099      59.400     297.073
  N      -74.487      59.381     295.837
  N      -76.321      57.168     296.968
  C      -77.044      56.586     297.900
  N      -77.201      57.375     299.011
  O      -73.335      52.637     301.128
  O      -73.518      54.085     298.963
  H      -80.600      57.019     300.771
  H      -73.744      54.989     298.682
  H      -75.312      61.369     299.689
  H      -77.461      55.586     297.831
  H      -78.143      57.948     300.745
  H      -79.540      56.049     299.174
  H      -77.900      54.309     299.531
  H      -77.856      55.201     302.479
  H      -75.531      54.452     302.445
  H      -74.074      60.242     295.517
  H      -74.741      58.645     295.196
  H      -76.601      53.111     301.975
  P      -79.221      52.200     300.665
  C      -81.518      52.494     299.549
  O      -80.209      51.950     299.428
  O      -79.431      51.324     301.850
  O      -77.773      52.024     300.011
  H      -77.509      51.083     300.033
  H      -82.082      52.265     298.669
  H      -81.454      53.556     299.665
  H      -82.003      52.070     300.404

 6  7  8  9  10  11  12  13  14  15  25  28  32  33  34  35 0
 6-311+G(2d,p)
 ****
 36  39  40 0
 6-311+G(2d,p)
 ****
 1  2  3  4  5  16  17  18  19  20  21  22  23  24 0
 3-21G
 ****
 26  27  29  30  31  37  38  41  42  43  44  45  46  47 0
 3-21G
 ****
 48 0
 3-21G
 ****


