%nproc=1
%NoSave
%Mem=1900MB
#P OB98/GEN NMR

erre ene a

0 1
  C      130.883     211.585      54.300
  O      130.227     212.076      53.153
  H      130.634     212.234      55.145
  H      131.967     211.599      54.163
  H      130.547     210.570      54.528
  P      130.567     211.426      51.723
  C      132.207     213.263      51.006
  O      132.074     211.903      51.400
  C      133.508     213.497      50.234
  O      134.630     213.477      51.153
  C      133.780     212.449      49.148
  O      134.173     213.108      47.940
  C      134.939     211.640      49.709
  O      135.694     210.999      48.687
  C      135.676     212.708      50.526
  N      136.594     212.143      51.506
  C      137.816     212.803      51.672
  O      138.086     213.789      50.983
  N      138.717     212.315      52.583
  C      138.446     211.229      53.236
  N      139.385     210.789      54.117
  C      137.191     210.471      53.059
  C      136.316     210.984      52.193
  O      129.574     211.721      50.650
  O      130.742     209.864      52.023
  H      136.150     211.690      48.157
  H      130.637     209.354      51.182
  H      137.016     209.564      53.619
  H      135.364     210.500      52.006
  H      136.244     213.379      49.866
  H      134.550     210.864      50.380
  H      132.921     211.819      48.932
  H      133.479     214.510      49.812
  H      140.233     211.338      54.210
  H      132.178     213.893      51.902
  H      139.287     209.954      54.674
  H      131.360     213.517      50.359
  P      133.137     213.017      46.716
  C      134.539     211.230      45.467
  O      133.287     211.563      46.051
  O      133.772     214.004      45.630
  O      131.744     213.411      47.080
  H      133.307     214.861      45.642
  H      134.493     210.239      45.066
  H      135.305     211.278      46.213
  H      134.762     211.922      44.682

 6  7  8  9  10  11  12  13  14  15  16  26  30  31  32  33  35 0
 6-311+G(2d,p)
 ****
 37  38 0
 6-311+G(2d,p)
 ****
 1  2  3  4  5  17  18  19  20  21  22  23  24  25 0
 3-21G
 ****
 27  28  29  34  36  39  40  41  42  43  44  45  46 0
 3-21G
 ****


