%nproc=1
%NoSave
%Mem=1900MB
#P OB98/GEN NMR

erre ene a

0 1
  C       53.079     159.303      -4.265
  O       53.868     159.054      -5.410
  P       53.270     158.494      -6.781
  C       52.059     156.250      -7.280
  O       53.173     156.892      -6.670
  C       52.031     154.734      -7.032
  O       51.805     154.480      -5.630
  C       50.855     154.097      -7.782
  O       50.983     153.756      -9.147
  C       50.377     152.966      -6.879
  O       50.892     151.693      -7.276
  C       50.922     153.357      -5.501
  N       47.981     151.636      -1.743
  C       49.120     151.069      -2.289
  N       49.388     149.800      -1.907
  N       49.897     151.684      -3.140
  C       49.444     152.910      -3.499
  C       48.341     153.580      -3.019
  C       47.511     152.903      -2.047
  O       46.449     153.338      -1.606
  N       48.148     154.774      -3.665
  C       49.109     154.812      -4.562
  N       49.898     153.683      -4.528
  O       53.803     159.093      -8.042
  O       51.722     158.937      -6.656
  H       50.581     151.515      -8.185
  H       51.403     159.150      -7.554
  H       47.374     151.081      -1.151
  H       49.261     155.609      -5.283
  H       51.516     152.538      -5.074
  H       49.285     152.880      -6.910
  H       48.736     149.249      -1.370
  H       50.039     154.831      -7.766
  H       50.112     149.299      -2.411
  H       52.997     154.279      -7.263
  H       52.103     156.464      -8.353
  H       51.130     156.691      -6.903
  P       49.805     153.279     -10.120
  C       47.954     151.514     -10.110
  O       49.178     151.929      -9.530
  O       50.564     152.774     -11.438
  O       48.809     154.337     -10.468
  H       49.952     152.794     -12.198
  H       47.477     150.784      -9.449
  H       48.148     151.043     -11.076
  H       47.277     152.365     -10.248
  H       53.701     159.672      -3.477
  H       52.608     158.395      -3.952
  H       52.330     160.031      -4.499

 3  4  5  6  7  8  9  10  11  12  23  26  30  31 0
 6-311+G(2d,p)
 ****
 33  35  36  37  38 0
 6-311+G(2d,p)
 ****
 1  2  13  14  15  16  17  18  19  20  21  22  24  25 0
 3-21G
 ****
 27  28  29  32  34  39  40  41  42  43  44  45  46  47  48  49 0
 3-21G
 ****


