%nproc=1
%NoSave
%Mem=1900MB
#P OB98/GEN NMR

erre ene a

0 1
  C      214.669    -500.139     360.663
  O      213.420    -499.744     360.131
  H      214.586    -500.184     361.751
  H      215.431    -499.402     360.400
  H      214.955    -501.123     360.285
  P      213.259    -499.759     358.532
  C      211.350    -499.204     356.860
  O      211.759    -499.273     358.218
  C      209.822    -499.143     356.766
  O      209.285    -500.460     357.049
  C      209.191    -498.154     357.749
  O      208.087    -497.512     357.099
  C      208.671    -499.039     358.870
  O      207.586    -498.450     359.582
  C      208.318    -500.325     358.105
  N      208.316    -501.488     358.991
  C      207.201    -502.334     358.914
  O      206.285    -502.082     358.127
  N      207.132    -503.413     359.753
  C      208.043    -503.584     360.663
  N      207.902    -504.653     361.489
  C      209.198    -502.676     360.829
  C      209.273    -501.664     359.963
  O      213.217    -501.318     358.176
  O      214.317    -499.029     357.775
  H      207.921    -497.659     360.055
  H      213.609    -501.492     357.302
  H      209.920    -502.843     361.616
  H      210.082    -500.943     360.012
  H      207.323    -500.231     357.640
  H      209.478    -499.233     359.582
  H      209.888    -497.397     358.113
  H      209.549    -498.898     355.730
  H      207.089    -505.243     361.359
  H      211.700    -500.101     356.340
  H      208.526    -504.859     362.262
  H      211.799    -498.321     356.390
  P      208.375    -496.086     356.432
  C      207.009    -494.397     355.002
  O      206.980    -495.466     355.934
  O      209.134    -496.455     355.075
  O      209.194    -495.172     357.294
  H      210.077    -496.218     355.143
  H      206.008    -494.098     354.771
  H      207.501    -494.717     354.107
  H      207.540    -493.570     355.424

 6  7  8  9  10  11  12  13  14  15  16  26  30  31  32  33  35 0
 6-311+G(2d,p)
 ****
 37  38 0
 6-311+G(2d,p)
 ****
 1  2  3  4  5  17  18  19  20  21  22  23  24  25 0
 3-21G
 ****
 27  28  29  34  36  39  40  41  42  43  44  45  46 0
 3-21G
 ****


