%nproc=1
%NoSave
%Mem=1900MB
#P OB98/GEN NMR

erre ene a

0 1
  C      -56.548      70.350     -59.917
  O      -57.087      69.826     -58.724
  H      -56.070      71.308     -59.689
  H      -57.335      70.524     -60.654
  H      -55.794      69.672     -60.325
  P      -58.013      68.515     -58.798
  C      -56.905      67.145     -56.935
  O      -58.031      67.937     -57.293
  C      -55.896      67.945     -56.110
  O      -56.561      68.528     -54.959
  C      -54.720      67.111     -55.590
  O      -53.497      67.811     -55.830
  C      -54.984      67.007     -54.095
  O      -53.793      66.766     -53.353
  C      -55.690      68.341     -53.828
  N      -56.426      68.355     -52.570
  C      -55.681      68.599     -51.413
  O      -54.460      68.754     -51.483
  N      -56.324      68.625     -50.203
  C      -57.594      68.374     -50.143
  N      -58.171      68.404     -48.913
  C      -58.412      68.064     -51.333
  C      -57.772      68.078     -52.502
  O      -57.617      67.529     -59.844
  O      -59.498      69.082     -58.982
  H      -53.157      67.491     -53.543
  H      -60.078      68.370     -59.349
  H      -59.465      67.850     -51.232
  H      -58.295      67.870     -53.430
  H      -54.966      69.168     -53.814
  H      -55.677      66.177     -53.904
  H      -54.651      66.129     -56.051
  H      -55.547      68.788     -56.718
  H      -57.576      68.622     -48.123
  H      -56.435      66.769     -57.850
  H      -59.149      68.218     -48.746
  H      -57.259      66.297     -56.338
  P      -52.631      67.310     -57.086
  C      -51.150      69.416     -57.373
  O      -51.202      68.041     -57.024
  O      -53.362      68.000     -58.331
  O      -52.582      65.824     -57.225
  H      -53.941      67.357     -58.780
  H      -50.143      69.768     -57.287
  H      -51.781      69.975     -56.714
  H      -51.487      69.541     -58.381

 6  7  8  9  10  11  12  13  14  15  16  26  30  31  32  33  35 0
 6-311+G(2d,p)
 ****
 37  38 0
 6-311+G(2d,p)
 ****
 1  2  3  4  5  17  18  19  20  21  22  23  24  25 0
 3-21G
 ****
 27  28  29  34  36  39  40  41  42  43  44  45  46 0
 3-21G
 ****


