%nproc=1
%NoSave
%Mem=1900MB
#P OB98/GEN NMR

erre ene a

0 1
  C       72.069      99.551    -274.383
  O       71.940     100.855    -273.848
  H       73.118      99.380    -274.645
  H       71.464      99.444    -275.287
  H       71.767      98.804    -273.644
  P       70.485     101.346    -273.392
  C       71.056     100.316    -271.093
  O       70.091     100.439    -272.133
  C       70.395     100.542    -269.739
  O       69.773     101.842    -269.690
  C       69.301      99.529    -269.400
  O       69.872      98.326    -268.914
  C       68.527     100.299    -268.344
  O       69.243     100.261    -267.093
  C       68.543     101.724    -268.926
  N       63.504     102.197    -269.235
  C       64.297     101.797    -268.173
  N       63.645     101.429    -267.049
  N       65.606     101.742    -268.218
  C       66.107     102.071    -269.431
  C       65.424     102.465    -270.556
  C       63.988     102.580    -270.479
  O       63.253     102.943    -271.391
  N       66.280     102.651    -271.620
  C       67.472     102.404    -271.120
  N       67.426     102.037    -269.800
  O       69.435     101.390    -274.459
  O       70.746     102.785    -272.743
  H       69.504      99.333    -266.945
  H       70.638     103.494    -273.401
  H       62.505     102.202    -269.141
  H       68.408     102.488    -271.673
  H       68.569     102.492    -268.144
  H       67.531      99.895    -268.161
  H       62.662     101.187    -267.058
  H       68.635      99.351    -270.254
  H       64.200     101.089    -266.277
  H       71.184     100.536    -268.973
  H       71.831     101.064    -271.272
  H       71.513      99.319    -271.116
  P       69.204      96.897    -269.241
  C       70.919      96.293    -271.082
  O       69.572      96.623    -270.778
  O       67.756      96.794    -268.916
  O       70.127      95.846    -268.474
  H       69.838      95.675    -267.542
  H       71.019      96.138    -272.136
  H       71.193      95.399    -270.562
  H       71.560      97.094    -270.777

 6  7  8  9  10  11  12  13  14  15  26  29  33  34 0
 6-311+G(2d,p)
 ****
 36  38  39  40  41 0
 6-311+G(2d,p)
 ****
 1  2  3  4  5  16  17  18  19  20  21  22  23  24  25 0
 3-21G
 ****
 27  28  30  31  32  35  37  42  43  44  45  46  47 0
 3-21G
 ****
 48  49 0
 3-21G
 ****


