%nproc=1
%NoSave
%Mem=1900MB
#P OB98/GEN NMR

erre ene a

0 1
  C      -58.925       9.924      58.167
  O      -57.876      10.825      57.898
  H      -58.934       9.714      59.241
  H      -58.774       8.983      57.633
  H      -59.887      10.362      57.889
  P      -57.510      11.160      56.369
  C      -57.431      13.696      56.752
  O      -56.669      12.535      56.438
  C      -56.560      14.783      57.384
  O      -56.273      14.436      58.764
  C      -55.218      14.993      56.673
  O      -54.994      16.393      56.484
  C      -54.199      14.422      57.647
  O      -52.903      14.983      57.463
  C      -54.879      14.717      58.989
  N      -54.338      13.925      60.088
  C      -53.060      14.271      60.537
  O      -52.434      15.179      59.987
  N      -52.505      13.561      61.570
  C      -53.146      12.555      62.076
  N      -52.537      11.884      63.090
  C      -54.476      12.124      61.603
  C      -55.011      12.850      60.621
  O      -58.675      11.184      55.439
  O      -56.398      10.080      55.976
  H      -52.260      14.458      57.988
  H      -56.348      10.004      54.991
  H      -54.966      11.272      62.050
  H      -55.989      12.612      60.216
  H      -54.783      15.780      59.249
  H      -54.123      13.337      57.502
  H      -55.162      14.502      55.705
  H      -57.141      15.711      57.419
  H      -51.626      12.213      63.387
  H      -58.239      13.411      57.433
  H      -52.938      11.083      63.556
  H      -57.863      14.083      55.822
  P      -54.228      16.810      55.136
  C      -55.112      19.244      55.058
  O      -53.980      18.396      55.180
  O      -55.350      16.628      54.009
  O      -53.018      15.982      54.854
  H      -55.218      15.785      53.537
  H      -54.799      20.266      55.104
  H      -55.795      19.044      55.857
  H      -55.595      19.061      54.121

 6  7  8  9  10  11  12  13  14  15  16  26  30  31  32  33  35 0
 6-311+G(2d,p)
 ****
 37  38 0
 6-311+G(2d,p)
 ****
 1  2  3  4  5  17  18  19  20  21  22  23  24  25 0
 3-21G
 ****
 27  28  29  34  36  39  40  41  42  43  44  45  46 0
 3-21G
 ****


