%nproc=1
%NoSave
%Mem=1900MB
#P OB98/GEN NMR

erre ene a

0 1
  C      450.524    -322.129    -523.274
  O      449.425    -321.367    -523.745
  H      451.213    -321.458    -522.752
  H      451.049    -322.590    -524.118
  H      450.182    -322.899    -522.579
  P      448.288    -322.179    -524.533
  C      447.036    -322.443    -522.259
  O      447.539    -323.070    -523.432
  C      446.340    -323.471    -521.362
  O      445.042    -323.793    -521.934
  C      447.107    -324.800    -521.223
  O      446.792    -325.361    -519.942
  C      446.469    -325.635    -522.323
  O      446.796    -326.998    -522.174
  C      445.013    -325.225    -522.135
  N      441.841    -328.712    -524.108
  C      442.477    -328.648    -522.922
  N      443.293    -327.684    -522.463
  C      443.416    -326.692    -523.366
  C      442.824    -326.613    -524.610
  C      442.001    -327.692    -524.985
  N      441.360    -327.769    -526.195
  N      443.190    -325.447    -525.254
  C      443.987    -324.830    -524.406
  N      444.163    -325.553    -523.253
  O      449.118    -323.244    -525.388
  O      447.386    -321.352    -525.387
  H      446.385    -327.533    -522.883
  H      449.268    -322.903    -526.292
  H      442.310    -329.490    -522.251
  H      444.470    -323.877    -524.578
  H      444.575    -325.678    -521.236
  H      446.838    -325.334    -523.307
  H      448.195    -324.688    -521.318
  H      446.151    -323.017    -520.381
  H      446.321    -321.667    -522.562
  H      447.862    -321.979    -521.715
  H      440.802    -328.583    -526.397
  H      441.487    -327.020    -526.868
  P      447.135    -324.524    -518.611
  C      444.576    -324.192    -518.195
  O      445.872    -323.613    -518.236
  O      448.179    -323.433    -519.168
  O      447.736    -325.308    -517.490
  H      448.778    -323.163    -518.446
  H      443.859    -323.443    -517.930
  H      444.559    -324.976    -517.467
  H      444.334    -324.593    -519.157

 6  7  8  9  10  11  12  13  14  15  25  28  32  33  34  35 0
 6-311+G(2d,p)
 ****
 36  37  40 0
 6-311+G(2d,p)
 ****
 1  2  3  4  5  16  17  18  19  20  21  22  23  24 0
 3-21G
 ****
 26  27  29  30  31  38  39 41  42  43  44  45  46  47  48 0
 3-21G
 ****


