%nproc=1
%NoSave
%Mem=1900MB
#P OB98/GEN NMR

erre ene a

0 1
  C      -90.981    -220.144     130.264
  O      -91.566    -218.923     130.670
  H      -91.387    -220.974     130.849
  H      -91.212    -220.309     129.207
  H      -89.895    -220.099     130.385
  P      -91.429    -218.551     132.225
  C      -91.319    -215.967     132.063
  O      -92.098    -217.103     132.408
  C      -92.099    -214.690     132.342
  O      -93.221    -214.582     131.440
  C      -92.698    -214.600     133.741
  O      -91.730    -214.225     134.711
  C      -93.736    -213.505     133.533
  O      -93.096    -212.215     133.584
  C      -94.237    -213.789     132.108
  N      -98.951    -213.933     130.077
  C      -97.926    -213.070     129.904
  N      -96.707    -213.086     130.486
  C      -96.585    -214.140     131.313
  C      -97.546    -215.101     131.585
  C      -98.782    -214.966     130.931
  N      -99.830    -215.841     131.124
  N      -97.062    -216.035     132.474
  C      -95.830    -215.650     132.733
  N      -95.496    -214.506     132.059
  O      -89.863    -218.261     132.404
  O      -91.902    -219.600     133.177
  H      -93.810    -211.552     133.614
  H      -89.581    -218.571     133.286
  H      -98.101    -212.256     129.205
  H      -95.144    -216.170     133.394
  H      -94.348    -212.864     131.531
  H      -94.522    -213.509     134.291
  H      -93.205    -215.531     134.017
  H      -91.434    -213.837     132.148
  H      -91.067    -216.008     130.997
  H     -100.608    -215.807     130.487
  H      -99.690    -216.618     131.762
  H      -90.392    -215.982     132.645
  P      -91.731    -215.026     136.105
  C      -89.274    -214.912     136.934
  O      -90.581    -214.346     136.990
  O      -91.101    -216.445     135.707
  O      -93.065    -215.171     136.750
  H      -91.405    -217.128     136.334
  H      -88.617    -214.357     137.571
  H      -88.911    -214.873     135.928
  H      -89.312    -215.930     137.261

 6  7  8  9  10  11  12  13  14  15  25  28  32  33  34  35 0
 6-311+G(2d,p)
 ****
 36  39  40 0
 6-311+G(2d,p)
 ****
 1  2  3  4  5  16  17  18  19  20  21  22  23  24 0
 3-21G
 ****
 26  27  29  30  31  37  38  41  42  43  44  45  46  47  48 0
 3-21G
 ****


