%nproc=1
%NoSave
%Mem=1900MB
#P OB98/GEN NMR

erre ene a

0 1
  C      915.471     473.744     469.049
  O      914.734     474.949     468.859
  P      915.361     476.056     467.872
  C      913.823     475.378     465.895
  O      915.155     475.489     466.395
  C      913.625     476.288     464.680
  O      914.636     476.014     463.679
  C      912.292     476.141     463.982
  O      911.256     476.854     464.616
  C      912.600     476.747     462.614
  O      912.554     478.190     462.713
  C      914.051     476.270     462.374
  N      912.671     474.167     457.921
  C      912.375     475.357     458.487
  N      912.762     475.830     459.685
  C      913.529     474.943     460.337
  C      913.871     473.659     459.902
  C      913.416     473.283     458.633
  N      913.748     472.070     458.048
  N      914.641     473.031     460.857
  C      914.777     473.898     461.825
  N      914.118     475.068     461.565
  O      916.942     475.897     468.117
  O      914.887     477.456     468.114
  H      911.731     478.416     463.151
  H      917.396     476.724     467.871
  H      911.743     476.014     457.885
  H      915.331     473.725     462.748
  H      914.655     477.038     461.892
  H      911.885     476.450     461.848
  H      912.026     475.076     463.849
  H      913.768     477.331     465.009
  H      913.123     475.675     466.676
  H      913.533     471.945     457.065
  H      914.460     471.505     458.494
  H      913.622     474.340     465.610
  P      909.750     476.275     464.464
  C      909.729     475.411     466.904
  O      909.647     475.090     465.539
  O      909.811     475.528     463.053
  O      908.686     477.324     464.520
  H      908.917     475.480     462.661
  H      909.350     474.558     467.488
  H      909.158     476.298     467.155
  H      910.778     475.561     467.195
  H      914.941     473.104     469.724
  H      916.433     473.975     469.457
  H      915.592     473.248     468.109

 3  4  5  6  7  8  9  10  11  12  22  25  29  30  31  32 0
 6-311+G(2d,p)
 ****
 33  36  37 0
 6-311+G(2d,p)
 ****
 1  2  13  14  15  16  17  18  19  20  21  23  24  26 0
 3-21G
 ****
 27  28  34  35  38  39  40  41  42  43  44  45  46  47  48 0
 3-21G
 ****


