%nproc=1
%NoSave
%Mem=1900MB
#P OB98/GEN NMR

erre ene a

0 1
  C      -80.243    -316.253     104.356
  O      -80.778    -317.488     104.849
  P      -82.240    -318.018     104.466
  C      -82.536    -319.061     106.809
  O      -82.615    -319.265     105.402
  C      -81.996    -320.297     107.530
  O      -82.474    -321.507     106.905
  C      -80.475    -320.419     107.537
  O      -79.894    -319.529     108.476
  C      -80.301    -321.901     107.869
  O      -80.404    -322.131     109.285
  C      -81.489    -322.538     107.122
  N      -81.089    -323.169     105.871
  C      -80.682    -324.501     105.946
  O      -80.615    -325.075     107.036
  N      -80.332    -325.152     104.785
  C      -80.321    -324.503     103.663
  N      -79.973    -325.197     102.545
  C      -80.658    -323.070     103.553
  C      -81.030    -322.475     104.684
  O      -82.432    -318.275     103.006
  O      -83.244    -316.870     104.965
  H      -81.307    -321.868     109.544
  H      -84.025    -316.854     104.379
  H      -80.607    -322.560     102.601
  H      -81.303    -321.425     104.693
  H      -81.978    -323.291     107.751
  H      -79.327    -322.290     107.554
  H      -80.083    -320.227     106.531
  H      -82.380    -320.283     108.562
  H      -79.756    -326.178     102.652
  H      -83.547    -318.843     107.181
  H      -79.936    -324.789     101.623
  H      -81.894    -318.197     107.006
  P      -78.431    -318.938     108.204
  C      -77.691    -318.694     110.651
  O      -78.044    -318.017     109.457
  O      -78.228    -318.304     106.868
  O      -77.466    -320.205     108.385
  H      -76.697    -320.105     107.797
  H      -77.079    -318.027     111.265
  H      -77.121    -319.600     110.434
  H      -78.600    -318.956     111.201
  H      -79.257    -316.111     104.745
  H      -80.869    -315.443     104.667
  H      -80.204    -316.283     103.287

 3  4  5  6  7  8  9  10  11  12  13  23  27  28  29  30  32 0
 6-311+G(2d,p)
 ****
 34  35 0
 6-311+G(2d,p)
 ****
 1  2  14  15  16  17  18  19  20  21  22  24  25  26 0
 3-21G
 ****
 31  33  36  37  38  39  40  41  42  43  44  45  46 0
 3-21G
 ****


