%nproc=1
%NoSave
%Mem=1900MB
#P OB98/GEN NMR

erre ene a

0 1
  C       11.127     334.579     154.114
  O       11.544     335.861     154.586
  P       11.415     336.105     156.170
  C        9.379     337.699     156.066
  O        9.878     336.442     156.493
  C        7.935     337.917     156.524
  O        7.552     339.322     156.416
  C        6.902     337.103     155.729
  O        5.861     336.740     156.645
  C        6.358     338.132     154.748
  O        5.109     337.725     154.203
  C        6.323     339.364     155.649
  N        3.083     342.742     153.765
  C        2.845     341.522     154.365
  N        1.551     341.171     154.533
  N        3.791     340.715     154.767
  C        5.041     341.216     154.571
  C        5.401     342.416     154.005
  C        4.341     343.285     153.532
  O        4.493     344.379     153.000
  N        6.767     342.580     154.006
  C        7.220     341.447     154.515
  N        6.217     340.616     154.922
  O       12.172     337.497     156.387
  O       12.016     335.010     156.996
  H        4.739     338.490     153.711
  H       13.073     337.343     156.728
  H        2.311     343.318     153.458
  H        8.260     341.196     154.636
  H        5.480     339.342     156.350
  H        7.064     338.272     153.920
  H        0.768     341.763     154.293
  H        7.304     336.220     155.232
  H        1.349     340.299     155.003
  H        7.870     337.648     157.587
  H        9.411     337.760     154.972
  H       10.038     338.495     156.435
  P        5.949     335.303     157.336
  C        4.771     334.019     155.415
  O        5.956     334.211     156.165
  O        4.496     335.124     157.993
  O        7.020     335.162     158.365
  H        4.580     334.683     158.860
  H        5.037     333.644     154.420
  H        4.213     334.952     155.299
  H        4.136     333.282     155.915
  H       11.257     334.530     153.053
  H       10.095     334.429     154.355
  H       11.717     333.818     154.581

 3  4  5  6  7  8  9  10  11  12  23  26  30  31 0
 6-311+G(2d,p)
 ****
 33  35  36  37  38 0
 6-311+G(2d,p)
 ****
 1  2  13  14  15  16  17  18  19  20  21  22  24  25 0
 3-21G
 ****
 27  28  29  32  34  39  40  41  42  43  44  45  46  47  48  49 0
 3-21G
 ****


