%nproc=1
%NoSave
%Mem=1900MB
#P OB98/GEN NMR

erre ene a

0 1
  C      453.647     -25.271     -67.126
  O      453.279     -24.031     -66.524
  P      454.324     -22.815     -66.456
  C      452.863     -20.747     -66.831
  O      453.580     -21.514     -65.869
  C      451.437     -21.260     -67.080
  O      450.676     -21.307     -65.849
  C      450.624     -20.435     -68.083
  O      449.776     -21.367     -68.761
  C      449.811     -19.532     -67.171
  O      448.680     -18.973     -67.821
  C      449.507     -20.488     -66.012
  N      449.164     -19.779     -64.780
  C      447.828     -19.801     -64.388
  O      446.982     -20.350     -65.093
  N      447.468     -19.160     -63.229
  C      448.351     -18.473     -62.572
  N      447.929     -17.834     -61.446
  C      449.760     -18.347     -63.000
  C      450.091     -19.029     -64.095
  O      455.086     -22.574     -67.719
  O      455.321     -23.231     -65.270
  H      448.138     -19.706     -68.183
  H      456.203     -22.856     -65.448
  H      450.455     -17.740     -62.439
  H      451.102     -19.008     -64.489
  H      448.671     -21.151     -66.269
  H      450.438     -18.700     -66.822
  H      451.239     -19.880     -68.791
  H      451.526     -22.297     -67.440
  H      446.950     -17.923     -61.203
  H      453.419     -20.761     -67.773
  H      448.505     -17.187     -60.931
  H      452.827     -19.705     -66.494
  P      449.870     -21.604     -70.342
  C      448.964     -23.946     -70.816
  O      448.654     -22.569     -70.739
  O      451.206     -22.050     -70.832
  O      449.450     -20.198     -70.993
  H      449.746     -20.174     -71.922
  H      448.033     -24.516     -70.883
  H      449.517     -24.274     -69.935
  H      449.564     -24.142     -71.713
  H      452.822     -25.951     -67.075
  H      454.484     -25.686     -66.605
  H      453.910     -25.106     -68.150

 3  4  5  6  7  8  9  10  11  12  13  23  27  28  29  30  32 0
 6-311+G(2d,p)
 ****
 34  35 0
 6-311+G(2d,p)
 ****
 1  2  14  15  16  17  18  19  20  21  22  24  25  26 0
 3-21G
 ****
 31  33  36  37  38  39  40  41  42  43  44  45  46 0
 3-21G
 ****


