%nproc=1
%NoSave
%Mem=1900MB
#P OB98/GEN NMR

erre ene a

0 1
  C      333.540    -384.308     -78.702
  O      333.591    -384.247     -77.280
  P      332.284    -384.653     -76.441
  C      332.206    -382.732     -74.722
  O      331.610    -383.307     -75.882
  C      331.578    -381.371     -74.408
  O      332.084    -380.336     -75.271
  C      330.070    -381.353     -74.596
  O      329.414    -382.041     -73.541
  C      329.801    -379.854     -74.665
  O      329.719    -379.287     -73.348
  C      331.059    -379.330     -75.393
  N      330.816    -378.994     -76.789
  C      330.532    -377.648     -77.053
  O      330.466    -376.833     -76.132
  N      330.321    -377.265     -78.355
  C      330.379    -378.146     -79.309
  N      330.169    -377.710     -80.579
  C      330.659    -379.580     -79.068
  C      330.855    -379.928     -77.802
  O      332.471    -385.739     -75.438
  O      331.256    -385.105     -77.593
  H      329.190    -379.914     -72.818
  H      330.652    -385.781     -77.228
  H      330.702    -380.273     -79.896
  H      331.065    -380.958     -77.532
  H      331.442    -378.433     -74.894
  H      328.851    -379.637     -75.170
  H      329.811    -381.817     -75.557
  H      331.824    -381.118     -73.364
  H      329.962    -376.729     -80.716
  H      333.284    -382.618     -74.888
  H      330.235    -378.310     -81.390
  H      332.086    -383.428     -73.884
  P      328.679    -383.415     -73.902
  C      326.437    -383.256     -72.601
  O      327.103    -383.160     -73.852
  O      328.946    -384.311     -72.594
  O      329.181    -384.098     -75.132
  H      329.042    -385.245     -72.856
  H      325.470    -382.761     -72.678
  H      327.014    -382.789     -71.803
  H      326.269    -384.313     -72.363
  H      334.484    -384.008     -79.106
  H      332.775    -383.652     -79.060
  H      333.323    -385.310     -79.008

 3  4  5  6  7  8  9  10  11  12  13  23  27  28  29  30  32 0
 6-311+G(2d,p)
 ****
 34  35 0
 6-311+G(2d,p)
 ****
 1  2  14  15  16  17  18  19  20  21  22  24  25  26 0
 3-21G
 ****
 31  33  36  37  38  39  40  41  42  43  44  45  46 0
 3-21G
 ****


