%nproc=1
%NoSave
%Mem=1900MB
#P OB98/GEN NMR

erre ene a

0 1
  C      158.845    -160.537     332.888
  O      158.038    -159.624     333.610
  P      158.587    -158.172     334.016
  C      158.285    -159.038     336.432
  O      159.118    -158.334     335.518
  C      159.004    -159.206     337.767
  O      160.031    -160.211     337.639
  C      159.711    -157.953     338.269
  O      158.784    -157.025     338.812
  C      160.696    -158.554     339.264
  O      160.036    -158.851     340.504
  C      161.096    -159.868     338.557
  N      162.377    -159.771     337.864
  C      163.516    -160.078     338.612
  O      163.428    -160.420     339.791
  N      164.743    -160.025     337.997
  C      164.827    -159.673     336.751
  N      166.063    -159.703     336.178
  C      163.660    -159.284     335.941
  C      162.479    -159.361     336.552
  O      157.620    -157.055     333.812
  O      159.943    -158.011     333.186
  H      159.924    -158.001     340.975
  H      159.812    -157.623     332.284
  H      163.783    -158.986     334.913
  H      161.568    -159.113     336.023
  H      161.149    -160.686     339.285
  H      161.547    -157.903     339.482
  H      160.261    -157.470     337.452
  H      158.273    -159.554     338.511
  H      166.803    -160.140     336.713
  H      158.063    -160.025     336.014
  H      166.176    -159.728     335.171
  H      157.345    -158.486     336.557
  P      159.344    -155.597     339.270
  C      158.286    -155.775     341.631
  O      159.476    -155.667     340.869
  O      158.106    -154.617     339.012
  O      160.575    -155.156     338.543
  H      158.235    -154.117     338.185
  H      158.554    -156.047     342.654
  H      157.628    -156.545     341.219
  H      157.769    -154.810     341.649
  H      158.297    -161.441     332.719
  H      159.728    -160.755     333.451
  H      159.119    -160.105     331.948

 3  4  5  6  7  8  9  10  11  12  13  23  27  28  29  30  32 0
 6-311+G(2d,p)
 ****
 34  35 0
 6-311+G(2d,p)
 ****
 1  2  14  15  16  17  18  19  20  21  22  24  25  26 0
 3-21G
 ****
 31  33  36  37  38  39  40  41  42  43  44  45  46 0
 3-21G
 ****


