%nproc=1
%NoSave
%Mem=1900MB
#P OB98/GEN NMR

erre ene a

0 1
  C     -393.824     781.527    -302.470
  O     -392.588     780.862    -302.317
  H     -393.631     782.480    -302.982
  H     -394.265     781.746    -301.495
  H     -394.513     780.940    -303.075
  P     -392.595     779.378    -301.677
  C     -390.388     778.285    -302.429
  O     -391.774     778.440    -302.692
  C     -389.567     778.788    -303.618
  O     -389.766     780.223    -303.759
  C     -388.057     778.553    -303.448
  O     -387.500     778.214    -304.724
  C     -387.525     779.919    -303.017
  O     -386.157     780.107    -303.376
  C     -388.479     780.874    -303.740
  N     -385.776     784.761    -301.990
  C     -385.385     783.638    -302.703
  N     -384.056     783.527    -302.968
  N     -386.207     782.707    -303.115
  C     -387.502     782.954    -302.796
  C     -388.017     784.018    -302.098
  C     -387.089     785.034    -301.626
  O     -387.380     786.034    -300.987
  N     -389.379     783.892    -301.939
  C     -389.683     782.763    -302.548
  N     -388.574     782.158    -303.075
  O     -393.940     778.857    -301.298
  O     -391.627     779.500    -300.421
  H     -385.626     779.562    -302.750
  H     -392.128     779.594    -299.588
  H     -385.109     785.427    -301.684
  H     -390.676     782.342    -302.614
  H     -388.177     781.068    -304.779
  H     -387.618     780.016    -301.931
  H     -383.373     784.211    -302.699
  H     -387.818     777.777    -302.740
  H     -383.746     782.728    -303.507
  H     -389.937     778.314    -304.527
  H     -390.186     777.223    -302.257
  H     -390.124     778.843    -301.532
  P     -387.611     776.693    -305.235
  C     -388.477     777.136    -307.627
  O     -388.775     776.607    -306.335
  O     -387.675     775.656    -304.157
  O     -386.276     776.522    -306.129
  H     -386.000     775.602    -306.075
  H     -389.328     777.020    -308.265
  H     -387.644     776.610    -308.044
  H     -388.236     778.175    -307.540

 6  7  8  9  10  11  12  13  14  15  26  29  33  34 0
 6-311+G(2d,p)
 ****
 36  38  39  40  41 0
 6-311+G(2d,p)
 ****
 1  2  3  4  5  16  17  18  19  20  21  22  23  24  25 0
 3-21G
 ****
 27  28  30  31  32  35  37  42  43  44  45  46  47 0
 3-21G
 ****
 48  49 0
 3-21G
 ****


