%nproc=1
%NoSave
%Mem=1900MB
#P OB98/GEN NMR

erre ene a

0 1
  C      -46.875    -142.085     -93.461
  O      -47.344    -141.018     -94.260
  H      -47.626    -142.879     -93.465
  H      -46.729    -141.751     -92.431
  H      -45.940    -142.487     -93.858
  P      -46.365    -139.783     -94.548
  C      -46.277    -140.265     -97.081
  O      -45.538    -140.142     -95.873
  C      -45.646    -139.396     -98.167
  O      -44.229    -139.665     -98.258
  C      -46.205    -139.649     -99.561
  O      -47.475    -139.047     -99.718
  C      -45.105    -139.051    -100.422
  O      -45.236    -137.624    -100.504
  C      -43.838    -139.446     -99.632
  N      -43.169    -140.623    -100.184
  C      -42.616    -140.485    -101.453
  O      -42.697    -139.452    -102.117
  N      -41.984    -141.593    -101.954
  C      -41.955    -142.827    -101.372
  O      -41.453    -143.811    -101.905
  C      -42.576    -142.922    -100.044
  C      -43.144    -141.832     -99.519
  O      -45.539    -139.328     -93.392
  O      -47.355    -138.626     -95.049
  H      -44.419    -137.298    -100.931
  H      -47.474    -137.971     -94.337
  H      -41.590    -141.515    -102.876
  H      -42.560    -143.881     -99.545
  H      -43.613    -141.886     -98.544
  H      -43.120    -138.617     -99.626
  H      -45.126    -139.433    -101.442
  H      -46.260    -140.727     -99.754
  H      -45.772    -138.343     -97.879
  H      -47.306    -139.933     -96.900
  H      -46.292    -141.318     -97.383
  P      -48.671    -139.874    -100.389
  C      -50.335    -139.561     -98.456
  O      -49.562    -140.490     -99.207
  O      -48.263    -140.845    -101.446
  O      -49.622    -138.741    -100.998
  H      -49.688    -138.859    -101.965
  H      -50.884    -140.083     -97.700
  H      -51.017    -139.055     -99.108
  H      -49.685    -138.847     -97.995

 6  7  8  9  10  11  12  13  14  15  16  26  31  32  33  34  35 0
 6-311+G(2d,p)
 ****
 36  37 0
 6-311+G(2d,p)
 ****
 1  2  3  4  5  17  18  19  20  21  22  23  24  25 0
 3-21G
 ****
 27  28  29  30  38  39  40  41  42  43  44  45 0
 3-21G
 ****


