%nproc=1
%NoSave
%Mem=1900MB
#P OB98/GEN NMR

erre ene a

0 1
  C     -221.423       9.510     103.234
  O     -222.602       9.202     102.506
  P     -222.651       7.951     101.497
  C     -221.837       7.565      99.073
  O     -222.060       8.507     100.115
  C     -221.985       8.250      97.715
  O     -223.346       8.694      97.544
  C     -221.117       9.486      97.536
  O     -219.765       9.132      97.282
  C     -221.841      10.180      96.383
  O     -221.481       9.571      95.131
  C     -223.319       9.876      96.710
  N     -223.996      10.994      97.359
  C     -224.461      12.015      96.518
  O     -224.303      11.955      95.300
  N     -225.126      13.078      97.083
  C     -225.300      13.129      98.368
  N     -226.026      14.172      98.862
  C     -224.780      12.106      99.295
  C     -224.152      11.075      98.725
  O     -223.985       7.289     101.384
  O     -221.489       6.979     102.005
  H     -220.508       9.646      95.054
  H     -221.784       6.335     102.700
  H     -224.937      12.198     100.359
  H     -223.761      10.268      99.334
  H     -223.863       9.615      95.795
  H     -221.621      11.251      96.312
  H     -221.162      10.120      98.431
  H     -221.764       7.508      96.933
  H     -226.508      14.749      98.183
  H     -222.585       6.768      99.159
  H     -226.443      14.133      99.786
  H     -220.840       7.126      99.187
  P     -218.624      10.075      97.902
  C     -217.854      12.519      97.487
  O     -218.725      11.467      97.106
  O     -217.270       9.407      97.372
  O     -218.656      10.187      99.392
  H     -216.854       8.874      98.076
  H     -217.881      13.290      96.712
  H     -216.828      12.153      97.587
  H     -218.188      12.959      98.431
  H     -221.596      10.372     103.844
  H     -220.624       9.711     102.551
  H     -221.160       8.680     103.856

 3  4  5  6  7  8  9  10  11  12  13  23  27  28  29  30  32 0
 6-311+G(2d,p)
 ****
 34  35 0
 6-311+G(2d,p)
 ****
 1  2  14  15  16  17  18  19  20  21  22  24  25  26 0
 3-21G
 ****
 31  33  36  37  38  39  40  41  42  43  44  45  46 0
 3-21G
 ****


