%nproc=1
%NoSave
%Mem=1900MB
#P OB98/GEN NMR

erre ene a

0 1
  C       -0.819     243.887      11.122
  O       -0.488     243.935       9.749
  H       -0.749     242.852      11.464
  H       -1.841     244.242      11.279
  H       -0.120     244.500      11.697
  P       -0.642     245.362       9.025
  C        0.538     246.379       6.934
  O        0.500     245.333       7.894
  C        1.948     246.952       6.844
  O        2.289     247.656       8.061
  C        3.048     245.909       6.665
  O        3.145     245.417       5.339
  C        4.260     246.737       7.051
  O        4.585     247.645       5.980
  C        3.717     247.495       8.281
  N        3.965     246.790       9.543
  C        5.014     247.274      10.337
  O        5.680     248.240       9.975
  N        5.305     246.624      11.511
  C        4.600     245.596      11.876
  N        4.939     244.994      13.050
  C        3.484     245.062      11.079
  C        3.222     245.698       9.938
  O       -0.046     246.389      10.099
  O       -2.008     245.703       8.532
  H        5.106     248.367       6.378
  H        0.041     247.287       9.694
  H        2.934     244.195      11.419
  H        2.413     245.363       9.299
  H        4.154     248.499       8.351
  H        5.151     246.138       7.241
  H        2.941     245.085       7.379
  H        1.959     247.686       6.029
  H        5.748     245.347      13.543
  H       -0.166     247.158       7.243
  H        4.553     244.106      13.341
  H        0.241     245.997       5.951
  P        4.290     244.331       5.038
  C        4.661     242.497       3.227
  O        3.768     243.431       3.820
  O        4.196     243.346       6.293
  O        5.666     244.896       4.870
  H        5.077     242.999       6.532
  H        4.162     241.980       2.434
  H        4.982     241.792       3.965
  H        5.511     243.016       2.835

 6  7  8  9  10  11  12  13  14  15  16  26  30  31  32  33  35 0
 6-311+G(2d,p)
 ****
 37  38 0
 6-311+G(2d,p)
 ****
 1  2  3  4  5  17  18  19  20  21  22  23  24  25 0
 3-21G
 ****
 27  28  29  34  36  39  40  41  42  43  44  45  46 0
 3-21G
 ****


