%nproc=1
%NoSave
%Mem=1900MB
#P OB98/GEN NMR

erre ene a

0 1
  C       27.127    -899.023     255.211
  O       28.201    -898.123     255.461
  P       29.156    -898.463     256.706
  C       29.003    -898.073     259.289
  O       28.417    -897.863     258.019
  C       29.555    -896.743     259.812
  O       28.482    -895.823     260.124
  C       30.401    -896.853     261.068
  O       31.724    -897.253     260.745
  C       30.306    -895.453     261.633
  O       31.244    -894.553     260.975
  C       28.846    -895.073     261.305
  N       28.083    -894.723     266.286
  C       29.239    -894.503     265.551
  N       30.320    -894.093     266.241
  N       29.312    -894.683     264.268
  C       28.130    -895.093     263.716
  C       26.940    -895.353     264.333
  C       26.849    -895.113     265.763
  O       25.845    -895.193     266.435
  N       25.989    -895.793     263.439
  C       26.598    -895.763     262.271
  N       27.909    -895.323     262.382
  O       30.398    -897.473     256.491
  O       29.558    -899.903     256.830
  H       32.134    -894.823     261.202
  H       31.141    -897.963     256.062
  H       28.084    -894.573     267.292
  H       26.151    -896.023     261.342
  H       28.756    -894.003     261.037
  H       30.552    -895.403     262.707
  H       30.346    -893.983     267.243
  H       29.949    -897.573     261.777
  H       31.196    -893.953     265.722
  H       30.136    -896.273     258.992
  H       29.820    -898.783     259.202
  H       28.241    -898.463     259.974
  P       32.604    -897.913     261.911
  C       33.372    -897.193     264.285
  O       32.796    -896.803     263.055
  O       34.068    -898.043     261.254
  O       32.115    -899.263     262.384
  H       34.488    -898.863     261.565
  H       33.906    -896.333     264.709
  H       34.065    -898.033     264.165
  H       32.559    -897.503     264.977
  H       26.570    -898.687     254.361
  H       26.485    -899.059     256.066
  H       27.518    -900.000     255.017

 3  4  5  6  7  8  9  10  11  12  23  26  30  31 0
 6-311+G(2d,p)
 ****
 33  35  36  37  38 0
 6-311+G(2d,p)
 ****
 1  2  13  14  15  16  17  18  19  20  21  22  24  25 0
 3-21G
 ****
 27  28  29  32  34  39  40  41  42  43  44  45  46  47  48  49 0
 3-21G
 ****


