%nproc=1
%NoSave
%Mem=1900MB
#P OB98/GEN NMR

erre ene a

0 1
  C      262.369     173.374     -21.948
  O      262.439     171.962     -21.729
  P      262.458     171.009     -23.022
  C      259.965     170.287     -23.006
  O      260.995     170.999     -23.678
  C      258.959     169.685     -23.998
  O      257.841     169.075     -23.292
  C      258.365     170.710     -24.968
  O      258.057     170.042     -26.196
  C      257.066     171.096     -24.284
  O      256.150     171.704     -25.195
  C      256.635     169.738     -23.729
  N      251.740     170.025     -22.547
  C      252.352     169.943     -23.781
  N      251.540     169.896     -24.859
  N      253.651     169.910     -23.947
  C      254.336     169.927     -22.774
  C      253.842     170.014     -21.495
  C      252.411     170.079     -21.329
  O      251.809     170.164     -20.261
  N      254.857     170.033     -20.568
  C      255.959     169.963     -21.292
  N      255.694     169.863     -22.631
  O      262.594     169.544     -22.387
  O      263.582     171.296     -23.963
  H      256.099     171.123     -25.987
  H      263.489     169.196     -22.550
  H      250.736     170.060     -22.479
  H      256.963     169.983     -20.898
  H      256.157     169.108     -24.490
  H      257.267     171.804     -23.473
  H      250.535     169.866     -24.800
  H      259.007     171.572     -25.173
  H      251.964     169.794     -25.773
  H      259.461     168.890     -24.561
  H      259.438     170.954     -22.314
  H      260.422     169.514     -22.379
  P      259.168     170.101     -27.351
  C      258.108     172.135     -28.571
  O      259.214     171.622     -27.851
  O      258.480     169.325     -28.573
  O      260.485     169.508     -26.979
  H      259.162     168.959     -29.166
  H      257.514     172.774     -27.908
  H      257.470     171.337     -28.971
  H      258.478     172.737     -29.404
  H      262.364     173.881     -21.006
  H      261.473     173.608     -22.484
  H      263.218     173.689     -22.518

 3  4  5  6  7  8  9  10  11  12  23  26  30  31 0
 6-311+G(2d,p)
 ****
 33  35  36  37  38 0
 6-311+G(2d,p)
 ****
 1  2  13  14  15  16  17  18  19  20  21  22  24  25 0
 3-21G
 ****
 27  28  29  32  34  39  40  41  42  43  44  45  46  47  48  49 0
 3-21G
 ****


