%nproc=1
%NoSave
%Mem=1900MB
#P OB98/GEN NMR

erre ene a

0 1
  C     -200.345    -112.450     -85.742
  O     -201.306    -111.918     -84.846
  P     -201.532    -110.327     -84.844
  C     -200.148    -110.245     -82.639
  O     -200.374    -109.699     -83.927
  C     -199.876    -109.130     -81.623
  O     -198.579    -108.549     -81.913
  C     -200.897    -107.987     -81.636
  O     -200.991    -107.497     -80.291
  C     -200.232    -106.942     -82.512
  O     -200.744    -105.631     -82.291
  C     -198.771    -107.130     -82.120
  N     -196.902    -103.025     -84.411
  C     -197.901    -103.133     -83.459
  N     -198.432    -101.971     -83.019
  N     -198.337    -104.268     -82.986
  C     -197.699    -105.344     -83.510
  C     -196.729    -105.369     -84.483
  C     -196.231    -104.103     -84.973
  O     -195.289    -103.961     -85.749
  N     -196.390    -106.653     -84.824
  C     -197.099    -107.400     -83.997
  N     -197.874    -106.649     -83.152
  O     -202.853    -110.156     -83.958
  O     -201.658    -109.690     -86.193
  H     -200.231    -105.012     -82.849
  H     -203.652    -110.124     -84.520
  H     -196.596    -102.118     -84.727
  H     -197.090    -108.477     -83.963
  H     -198.515    -106.611     -81.189
  H     -200.393    -107.190     -83.569
  H     -198.124    -101.056     -83.316
  H     -201.885    -108.283     -82.003
  H     -199.143    -102.018     -82.296
  H     -199.817    -109.581     -80.625
  H     -199.272    -110.900     -82.680
  H     -201.013    -110.844     -82.333
  P     -202.452    -107.192     -79.705
  C     -202.171    -104.616     -79.724
  O     -202.883    -105.736     -80.209
  O     -202.167    -106.967     -78.140
  O     -203.452    -108.280     -79.911
  H     -202.936    -107.269     -77.624
  H     -202.293    -103.789     -80.425
  H     -201.102    -104.832     -79.619
  H     -202.576    -104.320     -78.753
  H     -200.305    -113.514     -85.631
  H     -199.384    -112.032     -85.524
  H     -200.621    -112.206     -86.747

 3  4  5  6  7  8  9  10  11  12  23  26  30  31 0
 6-311+G(2d,p)
 ****
 33  35  36  37  38 0
 6-311+G(2d,p)
 ****
 1  2  13  14  15  16  17  18  19  20  21  22  24  25 0
 3-21G
 ****
 27  28  29  32  34  39  40  41  42  43  44  45  46  47  48  49 0
 3-21G
 ****


