%nproc=1
%NoSave
%Mem=1900MB
#P OB98/GEN NMR

erre ene a

0 1
  C     -162.811      31.756     133.277
  O     -163.923      32.537     133.693
  P     -164.745      32.057     134.985
  C     -162.991      33.155     136.552
  O     -163.698      31.973     136.203
  C     -163.302      33.580     137.986
  O     -162.758      32.590     138.901
  C     -162.718      34.938     138.390
  O     -163.631      35.537     139.318
  C     -161.444      34.559     139.122
  O     -160.985      35.600     139.981
  C     -161.904      33.289     139.834
  N     -157.630      33.019     142.627
  C     -158.541      34.003     142.471
  N     -159.655      34.001     141.710
  C     -159.785      32.830     141.062
  C     -158.917      31.749     141.095
  C     -157.792      31.870     141.927
  N     -156.867      30.864     142.095
  N     -159.374      30.737     140.275
  C     -160.495      31.198     139.756
  N     -160.794      32.448     140.222
  O     -165.057      30.524     134.653
  O     -165.995      32.819     135.264
  H     -161.640      35.719     140.693
  H     -166.015      30.406     134.498
  H     -158.355      34.910     143.040
  H     -161.117      30.673     139.046
  H     -162.494      33.509     140.733
  H     -160.649      34.345     138.397
  H     -162.536      35.615     137.547
  H     -164.391      33.577     138.120
  H     -163.300      33.958     135.876
  H     -156.167      30.974     142.811
  H     -157.080      29.942     141.732
  H     -161.918      32.990     136.430
  P     -163.688      37.139     139.353
  C     -165.859      37.222     137.937
  O     -164.502      37.599     138.054
  O     -162.178      37.569     139.030
  O     -164.156      37.704     140.652
  H     -161.987      38.436     139.435
  H     -166.403      38.013     137.412
  H     -166.325      37.065     138.915
  H     -165.927      36.297     137.359
  H     -162.368      32.199     132.409
  H     -163.139      30.765     133.043
  H     -162.088      31.716     134.065

 3  4  5  6  7  8  9  10  11  12  22  25  29  30  31  32 0
 6-311+G(2d,p)
 ****
 33  36  37 0
 6-311+G(2d,p)
 ****
 1  2  13  14  15  16  17  18  19  20  21  23  24  26 0
 3-21G
 ****
 27  28  34  35  38  39  40  41  42  43  44  45  46  47  48 0
 3-21G
 ****


