%nproc=1
%NoSave
%Mem=1900MB
#P OB98/GEN NMR

erre ene a

0 1
  C     -151.533      54.312     -17.774
  O     -151.379      52.992     -18.314
  P     -152.081      51.693     -17.684
  C     -151.900      50.328     -15.489
  O     -151.580      51.539     -16.166
  C     -151.387      50.355     -14.048
  O     -149.941      50.263     -14.031
  C     -151.686      51.632     -13.273
  O     -153.048      51.724     -12.894
  C     -150.712      51.507     -12.103
  O     -151.262      50.701     -11.050
  C     -149.513      50.784     -12.747
  N     -148.347      51.641     -12.894
  C     -147.427      51.635     -11.838
  O     -147.660      50.994     -10.813
  N     -146.276      52.370     -11.971
  C     -146.106      53.127     -13.010
  N     -144.936      53.819     -13.094
  C     -147.114      53.266     -14.079
  C     -148.198      52.501     -13.959
  O     -151.907      50.453     -18.503
  O     -153.630      52.076     -17.541
  H     -154.171      51.265     -17.571
  H     -150.671      50.802     -10.279
  H     -146.952      53.941     -14.908
  H     -148.982      52.530     -14.709
  H     -149.241      49.903     -12.156
  H     -150.466      52.481     -11.667
  H     -151.408      52.500     -13.887
  H     -151.798      49.484     -13.521
  H     -144.262      53.693     -12.348
  H     -151.423      49.497     -16.021
  H     -144.699      54.416     -13.870
  H     -152.987      50.177     -15.516
  P     -154.062      52.344     -13.975
  C     -154.332      54.621     -15.194
  O     -153.527      53.806     -14.363
  O     -155.387      52.636     -13.119
  O     -154.350      51.452     -15.137
  H     -156.174      52.422     -13.656
  H     -154.112      55.671     -14.975
  H     -155.400      54.441     -15.030
  H     -154.088      54.419     -16.240
  H     -150.972      55.006     -18.364
  H     -151.175      54.329     -16.766
  H     -152.567      54.585     -17.789

 3  4  5  6  7  8  9  10  11  12  13  24  27  28  29  30  32 0
 6-311+G(2d,p)
 ****
 34  35 0
 6-311+G(2d,p)
 ****
 1  2  14  15  16  17  18  19  20  21  22  23  25  26 0
 3-21G
 ****
 31  33  36  37  38  39  40  41  42  43  44  45  46 0
 3-21G
 ****


