%nproc=1
%NoSave
%Mem=1900MB
#P OB98/GEN NMR

erre ene a

0 1
  C       28.101     -55.122     247.619
  O       29.499     -55.099     247.842
  H       27.591     -55.096     248.586
  H       27.824     -56.043     247.099
  H       27.792     -54.254     247.031
  P       30.421     -54.897     246.549
  C       30.839     -57.443     246.076
  O       31.384     -56.183     246.442
  C       31.960     -58.449     245.836
  O       31.428     -59.718     245.407
  C       32.916     -58.064     244.720
  O       33.776     -57.005     245.080
  C       33.640     -59.385     244.500
  O       34.724     -59.555     245.420
  C       32.523     -60.422     244.773
  N       32.114     -61.105     243.560
  C       32.835     -62.267     243.255
  O       33.732     -62.653     244.006
  N       32.546     -62.933     242.093
  C       31.638     -62.467     241.291
  N       31.423     -63.159     240.140
  C       30.857     -61.247     241.575
  C       31.144     -60.620     242.716
  O       31.416     -53.735     247.012
  O       29.679     -54.600     245.290
  H       35.445     -58.971     245.106
  H       31.824     -53.891     247.881
  H       30.101     -60.908     240.881
  H       30.619     -59.715     243.003
  H       32.866     -61.176     245.492
  H       34.063     -59.450     243.494
  H       32.354     -57.827     243.807
  H       32.494     -58.598     246.784
  H       32.019     -63.957     239.960
  H       30.216     -57.347     245.181
  H       30.801     -62.849     239.408
  H       30.194     -57.777     246.894
  P       33.851     -55.662     244.214
  C       35.374     -56.528     242.326
  O       35.272     -55.676     243.460
  O       33.565     -54.402     244.961
  O       32.834     -55.950     243.010
  H       33.056     -56.723     242.463
  H       36.357     -56.453     241.911
  H       34.654     -56.232     241.592
  H       35.187     -57.539     242.622

 6  7  8  9  10  11  12  13  14  15  16  26  30  31  32  33  35 0
 6-311+G(2d,p)
 ****
 37  38 0
 6-311+G(2d,p)
 ****
 1  2  3  4  5  17  18  19  20  21  22  23  24  25 0
 3-21G
 ****
 27  28  29  34  36  39  40  41  42  43  44  45  46 0
 3-21G
 ****


