%nproc=1
%NoSave
%Mem=1900MB
#P OB98/GEN NMR

erre ene a

0 1
  C     -228.970      61.064     633.207
  O     -228.827      62.453     633.439
  H     -228.052      60.679     632.771
  H     -229.794      60.886     632.514
  H     -229.159      60.538     634.152
  P     -229.967      63.187     634.294
  C     -229.195      65.445     633.260
  O     -229.509      64.725     634.445
  C     -228.048      66.414     633.527
  O     -228.376      67.194     634.718
  C     -226.689      65.732     633.793
  O     -225.656      66.563     633.222
  C     -226.571      65.755     635.305
  O     -225.247      65.676     635.779
  C     -227.253      67.102     635.622
  N     -227.678      67.192     637.014
  C     -226.751      67.685     637.938
  O     -225.649      68.123     637.658
  N     -227.164      67.665     639.248
  C     -228.358      67.176     639.715
  O     -228.665      67.171     640.908
  C     -229.283      66.666     638.691
  C     -228.912      66.685     637.412
  O     -229.745      62.595     635.768
  O     -231.363      62.997     633.805
  H     -230.278      61.784     635.893
  H     -225.269      65.749     636.761
  H     -226.508      68.005     639.934
  H     -230.244      66.267     639.020
  H     -229.567      66.312     636.637
  H     -226.566      67.926     635.389
  H     -227.147      64.923     635.730
  H     -226.617      64.719     633.383
  H     -227.975      67.128     632.692
  H     -230.077      66.008     632.925
  H     -228.912      64.733     632.463
  P     -224.831      65.946     631.986
  C     -222.455      66.902     632.554
  O     -223.617      66.966     631.744
  O     -225.847      66.218     630.783
  O     -224.457      64.520     632.182
  H     -226.337      67.055     630.873
  H     -221.762      67.656     632.244
  H     -222.002      65.938     632.452
  H     -222.724      67.064     633.577

 6  7  8  9  10  11  12  13  14  15  16  27  31  32  33  34  35 0
 6-311+G(2d,p)
 ****
 36  37 0
 6-311+G(2d,p)
 ****
 1  2  3  4  5  17  18  19  20  21  22  23  24  25 0
 3-21G
 ****
 26  28  29  30  38  39  40  41  42  43  44  45 0
 3-21G
 ****


