%nproc=1
%NoSave
%Mem=1900MB
#P OB98/GEN NMR

erre ene a

0 1
  C      -32.395    -682.835     -14.497
  O      -32.963    -684.126     -14.491
  H      -31.314    -682.924     -14.363
  H      -32.796    -682.235     -13.671
  H      -32.598    -682.337     -15.450
  P      -34.556    -684.216     -14.630
  C      -34.053    -684.344     -17.147
  O      -34.853    -683.750     -16.136
  C      -34.578    -683.967     -18.546
  O      -35.785    -684.729     -18.796
  C      -34.910    -682.486     -18.685
  O      -34.552    -682.041     -19.990
  C      -36.422    -682.450     -18.542
  O      -37.003    -681.317     -19.194
  C      -36.828    -683.791     -19.140
  N      -41.860    -682.922     -19.206
  C      -40.837    -682.389     -19.926
  N      -39.523    -682.710     -19.846
  C      -39.319    -683.680     -18.959
  C      -40.240    -684.304     -18.148
  C      -41.581    -683.888     -18.293
  N      -42.617    -684.391     -17.555
  N      -39.626    -685.252     -17.324
  C      -38.350    -685.192     -17.652
  N      -38.112    -684.255     -18.617
  O      -35.336    -683.495     -13.573
  O      -34.796    -685.797     -14.703
  H      -36.932    -681.439     -20.159
  H      -34.151    -686.227     -15.286
  H      -41.103    -681.630     -20.644
  H      -37.562    -685.796     -17.217
  H      -36.915    -683.765     -20.237
  H      -36.699    -682.401     -17.471
  H      -34.413    -681.864     -17.935
  H      -33.830    -684.290     -19.296
  H      -34.046    -685.443     -17.042
  H      -43.550    -684.034     -17.733
  H      -42.430    -685.129     -16.882
  H      -33.028    -683.979     -17.016
  P      -33.055    -681.493     -20.221
  C      -31.913    -683.115     -21.876
  O      -32.083    -682.743     -20.511
  O      -32.557    -680.512     -19.212
  O      -33.164    -680.801     -21.671
  H      -32.627    -679.991     -21.691
  H      -31.250    -683.952     -21.938
  H      -31.500    -682.292     -22.421
  H      -32.862    -683.380     -22.294

 6  7  8  9  10  11  12  13  14  15  25  28  32  33  34  35 0
 6-311+G(2d,p)
 ****
 36  39  40 0
 6-311+G(2d,p)
 ****
 1  2  3  4  5  16  17  18  19  20  21  22  23  24 0
 3-21G
 ****
 26  27  29  30  31  37  38  41  42  43  44  45  46  47 0
 3-21G
 ****
 48 0
 3-21G
 ****


