%nproc=1
%NoSave
%Mem=1900MB
#P OB98/GEN NMR

erre ene a

0 1
  C      779.407     181.847    -854.074
  O      778.333     181.534    -854.929
  H      779.004     182.181    -853.107
  H      780.008     182.654    -854.507
  H      780.038     180.963    -853.899
  P      778.697     180.817    -856.324
  C      780.742     181.212    -857.874
  O      779.727     181.798    -857.082
  C      781.859     182.219    -858.125
  O      782.452     182.641    -856.881
  C      783.006     181.693    -858.988
  O      782.690     181.766    -860.382
  C      784.105     182.665    -858.618
  O      783.904     183.916    -859.288
  C      783.877     182.840    -857.098
  N      788.056     182.171    -854.295
  C      787.636     183.281    -855.003
  N      788.422     184.361    -854.980
  N      786.516     183.329    -855.683
  C      785.809     182.157    -855.649
  C      786.128     180.997    -854.983
  C      787.353     180.977    -854.220
  O      787.781     180.025    -853.556
  N      785.180     180.041    -855.164
  C      784.279     180.615    -855.949
  N      784.635     181.898    -856.283
  O      777.354     180.956    -857.179
  O      779.136     179.393    -856.214
  H      783.887     183.725    -860.248
  H      777.233     180.149    -857.729
  H      788.921     182.192    -853.802
  H      783.374     180.131    -856.319
  H      784.138     183.839    -856.754
  H      785.098     182.311    -858.892
  H      789.327     184.376    -854.502
  H      783.292     180.664    -858.695
  H      788.114     185.194    -855.465
  H      781.418     183.118    -858.585
  H      780.324     180.884    -858.844
  H      781.141     180.339    -857.354
  P      783.334     180.652    -861.341
  C      785.767     179.716    -861.544
  O      784.928     180.825    -861.224
  O      783.013     181.212    -862.814
  O      782.814     179.260    -861.130
  H      783.022     180.474    -863.454
  H      786.792     179.995    -861.415
  H      785.601     179.425    -862.560
  H      785.537     178.896    -860.896

 6  7  8  9  10  11  12  13  14  15  26  29  33  34 0
 6-311+G(2d,p)
 ****
 36  38  39  40  41 0
 6-311+G(2d,p)
 ****
 1  2  3  4  5  16  17  18  19  20  21  22  23  24  25 0
 3-21G
 ****
 27  28  30  31  32  35  37  42  43  44  45  46  47 0
 3-21G
 ****
 48  49 0
 3-21G
 ****


