%nproc=1
%NoSave
%Mem=1900MB
#P OB98/GEN NMR

erre ene a

0 1
  C     -109.597     -72.626    -110.909
  O     -108.433     -73.318    -110.505
  H     -109.311     -71.862    -111.638
  H     -110.054     -72.131    -110.050
  H     -110.312     -73.306    -111.377
  P     -108.581     -74.589    -109.542
  C     -106.602     -75.905    -110.546
  O     -107.125     -75.250    -109.399
  C     -105.872     -74.909    -111.453
  O     -104.823     -74.265    -110.685
  C     -105.224     -75.555    -112.681
  O     -105.343     -74.669    -113.794
  C     -103.768     -75.687    -112.282
  O     -102.897     -75.703    -113.411
  C     -103.578     -74.469    -111.380
  N      -98.553     -74.572    -110.864
  C      -99.329     -74.250    -111.958
  N      -98.672     -73.924    -113.092
  N     -100.637     -74.250    -111.946
  C     -101.160     -74.575    -110.738
  C     -100.500     -74.914    -109.581
  C      -99.053     -74.930    -109.615
  O      -98.313     -75.223    -108.682
  N     -101.382     -75.198    -108.570
  C     -102.572     -75.032    -109.115
  N     -102.492     -74.666    -110.433
  O     -109.666     -75.546    -109.924
  O     -108.838     -73.961    -108.095
  H     -103.113     -74.911    -113.950
  H     -109.772     -74.053    -107.834
  H      -97.550     -74.568    -110.931
  H     -103.518     -75.168    -108.606
  H     -103.343     -73.561    -111.948
  H     -103.620     -76.618    -111.721
  H      -97.667     -73.879    -113.167
  H     -105.674     -76.516    -112.928
  H      -99.217     -73.653    -113.901
  H     -106.579     -74.125    -111.749
  H     -107.435     -76.357    -111.093
  H     -105.915     -76.697    -110.229
  P     -106.303     -75.075    -115.014
  C     -106.321     -72.674    -115.929
  O     -106.070     -74.041    -116.221
  O     -107.731     -75.311    -114.654
  O     -105.621     -76.418    -115.568
  H     -106.324     -77.019    -115.888
  H     -106.134     -72.083    -116.801
  H     -105.677     -72.354    -115.137
  H     -107.341     -72.555    -115.629

 6  7  8  9  10  11  12  13  14  15  26  29  33  34 0
 6-311+G(2d,p)
 ****
 36  38  39  40  41 0
 6-311+G(2d,p)
 ****
 1  2  3  4  5  16  17  18  19  20  21  22  23  24  25 0
 3-21G
 ****
 27  28  30  31  32  35  37  42  43  44  45  46  47 0
 3-21G
 ****
 48  49 0
 3-21G
 ****


