%nproc=1
%NoSave
%Mem=1900MB
#P OB98/GEN NMR

erre ene a

0 1
  C      110.846     -22.820    -134.700
  O      109.669     -22.990    -135.482
  P      108.663     -21.742    -135.589
  C      109.691     -20.292    -137.501
  O      109.531     -20.489    -136.090
  C      109.168     -18.911    -137.891
  O      109.783     -17.876    -137.090
  C      109.457     -18.534    -139.338
  O      108.528     -19.103    -140.252
  C      109.288     -17.016    -139.283
  O      107.881     -16.674    -139.328
  C      109.872     -16.682    -137.900
  N      112.901     -12.643    -138.375
  C      111.530     -12.708    -138.144
  N      110.872     -11.518    -138.090
  N      110.866     -13.818    -137.979
  C      111.660     -14.929    -138.064
  C      113.023     -14.984    -138.290
  C      113.739     -13.748    -138.480
  O      114.929     -13.626    -138.737
  N      113.467     -16.287    -138.287
  C      112.389     -16.999    -138.079
  N      111.248     -16.232    -137.981
  O      108.354     -21.372    -134.058
  O      107.412     -22.007    -136.359
  H      107.842     -15.706    -139.198
  H      107.555     -20.823    -133.995
  H      113.347     -11.754    -138.495
  H      112.366     -18.081    -138.010
  H      109.285     -15.902    -137.386
  H      109.774     -16.501    -140.116
  H      111.307     -10.638    -138.283
  H      110.504     -18.764    -139.611
  H      109.866     -11.548    -137.999
  H      108.088     -18.882    -137.704
  H      109.126     -21.065    -138.034
  H      110.748     -20.401    -137.759
  P      109.037     -19.324    -141.768
  C      109.207     -21.903    -141.618
  O      109.902     -20.678    -141.745
  O      110.148     -18.165    -141.938
  O      107.951     -19.234    -142.804
  H      110.222     -17.925    -142.880
  H      109.893     -22.722    -141.890
  H      108.346     -21.944    -142.294
  H      108.874     -22.051    -140.588
  H      111.419     -23.724    -134.717
  H      110.574     -22.589    -133.691
  H      111.430     -22.020    -135.104

 3  4  5  6  7  8  9  10  11  12  23  26  30  31 0
 6-311+G(2d,p)
 ****
 33  35  36  37  38 0
 6-311+G(2d,p)
 ****
 1  2  13  14  15  16  17  18  19  20  21  22  24  25 0
 3-21G
 ****
 27  28  29  32  34  39  40  41  42  43  44  45  46  47  48  49 0
 3-21G
 ****


