%nproc=1
%NoSave
%Mem=1900MB
#P OB98/GEN NMR

erre ene a

0 1
  C      320.770      36.358    -426.098
  O      321.511      36.744    -424.957
  H      319.733      36.670    -425.961
  H      320.794      35.272    -426.226
  H      321.168      36.849    -426.990
  P      323.048      36.294    -424.857
  C      323.243      38.349    -423.292
  O      323.576      36.986    -423.504
  C      323.864      38.848    -421.988
  O      323.233      38.232    -420.845
  C      325.351      38.537    -421.827
  O      326.188      39.348    -422.632
  C      325.516      38.816    -420.340
  O      325.549      40.239    -420.122
  C      324.214      38.198    -419.773
  N      324.396      36.831    -419.286
  C      324.761      36.687    -417.944
  O      324.917      37.672    -417.224
  N      324.981      35.422    -417.452
  C      324.865      34.394    -418.235
  N      325.140      33.171    -417.706
  C      324.466      34.502    -419.650
  C      324.253      35.731    -420.107
  O      323.888      36.537    -426.072
  O      322.987      34.752    -424.428
  H      324.750      40.610    -420.538
  H      323.916      34.423    -424.366
  H      324.388      33.615    -420.261
  H      323.973      35.893    -421.144
  H      323.819      38.814    -418.957
  H      326.437      38.398    -419.922
  H      325.548      37.472    -422.004
  H      323.669      39.925    -421.921
  H      325.453      33.140    -416.746
  H      322.153      38.437    -423.266
  H      325.342      32.373    -418.302
  H      323.631      38.963    -424.113
  P      327.631      38.768    -423.041
  C      327.903      39.611    -425.489
  O      328.239      39.781    -424.125
  O      327.261      37.472    -423.896
  O      328.552      38.467    -421.900
  H      327.259      36.669    -423.337
  H      328.389      40.365    -426.073
  H      326.843      39.696    -425.608
  H      328.223      38.644    -425.817

 6  7  8  9  10  11  12  13  14  15  16  26  30  31  32  33  35 0
 6-311+G(2d,p)
 ****
 37  38 0
 6-311+G(2d,p)
 ****
 1  2  3  4  5  17  18  19  20  21  22  23  24  25 0
 3-21G
 ****
 27  28  29  34  36  39  40  41  42  43  44  45  46 0
 3-21G
 ****


