%nproc=1
%NoSave
%Mem=1900MB
#P OB98/GEN NMR

erre ene a

0 1
  C     -281.589    -396.698    -114.448
  O     -282.759    -395.913    -114.318
  P     -284.174    -396.676    -114.376
  C     -284.920    -397.040    -111.915
  O     -284.255    -397.579    -113.052
  C     -286.102    -397.915    -111.494
  O     -287.147    -397.800    -112.491
  C     -285.756    -399.398    -111.338
  O     -286.509    -399.906    -110.236
  C     -286.279    -400.019    -112.618
  O     -286.561    -401.407    -112.455
  C     -287.502    -399.135    -112.905
  N     -287.894    -399.174    -114.310
  C     -289.180    -399.641    -114.594
  O     -289.894    -400.070    -113.689
  N     -289.604    -399.659    -115.900
  C     -288.778    -399.342    -116.847
  N     -289.245    -399.372    -118.124
  C     -287.373    -398.962    -116.598
  C     -287.009    -398.879    -115.319
  O     -283.955    -397.746    -115.541
  O     -285.348    -395.789    -114.633
  H     -287.301    -401.493    -111.812
  H     -284.788    -397.919    -116.018
  H     -286.716    -398.742    -117.426
  H     -286.007    -398.585    -115.041
  H     -288.359    -399.456    -112.296
  H     -285.533    -399.910    -113.416
  H     -284.690    -399.570    -111.168
  H     -286.505    -397.518    -110.555
  H     -290.208    -399.649    -118.269
  H     -285.302    -396.046    -112.162
  H     -288.674    -399.143    -118.925
  H     -284.204    -396.936    -111.092
  P     -286.014    -401.276    -109.565
  C     -285.622    -400.484    -107.157
  O     -285.021    -400.825    -108.388
  O     -284.977    -401.814    -110.668
  O     -287.035    -402.314    -109.234
  H     -284.644    -402.691    -110.403
  H     -284.834    -400.332    -106.413
  H     -286.281    -401.287    -106.814
  H     -286.189    -399.553    -107.262
  H     -280.727    -396.066    -114.392
  H     -281.601    -397.202    -115.392
  H     -281.554    -397.420    -113.659

 3  4  5  6  7  8  9  10  11  12  13  21  23  27  28  29  30  32 0
 6-311+G(2d,p)
 ****
 34  35 0
 6-311+G(2d,p)
 ****
 1  2  14  15  16  17  18  19  20  22  24  25  26 0
 3-21G
 ****
 31  33  36  37  38  39  40  41  42  43  44  45  46 0
 3-21G
 ****


