%nproc=1
%NoSave
%Mem=1900MB
#P OB98/GEN NMR

erre ene a

0 1
  C      417.683    -891.150     837.900
  O      417.099    -892.050     838.806
  H      418.022    -891.700     837.011
  H      418.548    -890.650     838.349
  H      416.949    -890.400     837.584
  P      416.629    -891.520     840.238
  C      414.325    -892.690     840.161
  O      415.580    -892.590     840.812
  C      413.534    -893.900     840.669
  O      414.193    -895.120     840.221
  C      413.448    -893.980     842.211
  O      412.216    -894.630     842.541
  C      414.636    -894.870     842.532
  O      414.574    -895.350     843.856
  C      414.527    -895.900     841.391
  N      415.746    -896.660     841.224
  C      415.605    -897.950     840.691
  O      414.493    -898.390     840.407
  N      416.733    -898.720     840.522
  C      417.883    -898.280     840.907
  N      418.952    -899.090     840.729
  C      418.068    -896.940     841.531
  C      416.965    -896.200     841.654
  O      416.158    -890.090     840.272
  O      417.914    -891.730     841.177
  H      414.523    -894.600     844.497
  H      418.352    -890.870     841.336
  H      419.053    -896.620     841.849
  H      416.992    -895.210     842.092
  H      413.695    -896.600     841.585
  H      415.579    -894.310     842.452
  H      413.497    -893.000     842.693
  H      412.538    -893.890     840.217
  H      418.793    -900.000     840.307
  H      414.522    -892.810     839.083
  H      419.895    -898.860     841.022
  H      413.736    -891.780     840.308
  P      411.299    -894.190     843.781
  C      411.107    -891.670     843.219
  O      410.422    -892.910     843.379
  O      412.051    -894.020     845.068
  O      410.208    -895.360     843.931
  H      409.958    -895.450     844.865
  H      410.406    -890.907     842.953
  H      411.841    -891.765     842.446
  H      411.588    -891.407     844.138

 6  7  8  9  10  11  12  13  14  15  16  26  30  31  32  33  35 0
 6-311+G(2d,p)
 ****
 37  38 0
 6-311+G(2d,p)
 ****
 1  2  3  4  5  17  18  19  20  21  22  23  24  25 0
 3-21G
 ****
 27  28  29  34  36  39  40  41  42  43  44  45  46 0
 3-21G
 ****


