%nproc=1
%NoSave
%Mem=1900MB
#P OB98/GEN NMR

erre ene a

0 1
  C       53.806      32.277     -32.119
  O       53.166      32.415     -33.375
  H       54.113      33.267     -31.771
  H       54.694      31.648     -32.223
  H       53.122      31.840     -31.386
  P       52.435      31.109     -33.948
  C       54.677      30.193     -34.957
  O       53.556      29.967     -34.111
  C       55.759      29.153     -34.683
  O       55.906      28.928     -33.267
  C       55.452      27.771     -35.236
  O       55.574      27.707     -36.640
  C       56.489      26.935     -34.498
  O       57.759      26.959     -35.162
  C       56.572      27.650     -33.128
  N       56.007      26.843     -32.063
  C       56.874      25.894     -31.504
  O       58.035      25.804     -31.909
  N       56.392      25.054     -30.535
  C       55.149      25.131     -30.173
  N       54.725      24.246     -29.230
  C       54.201      26.115     -30.738
  C       54.692      26.932     -31.671
  O       52.116      31.527     -35.458
  O       51.240      30.669     -33.170
  H       58.074      27.886     -35.118
  H       52.878      31.904     -35.930
  H       53.178      26.148     -30.393
  H       54.066      27.684     -32.138
  H       57.618      27.870     -32.873
  H       56.187      25.886     -34.429
  H       54.455      27.445     -34.909
  H       56.710      29.538     -35.076
  H       55.393      23.554     -28.912
  H       55.073      31.203     -34.808
  H       53.765      24.161     -28.931
  H       54.331      30.121     -35.993
  P       54.594      26.798     -37.522
  C       55.681      24.656     -36.587
  O       54.470      25.384     -36.764
  O       54.948      26.691     -38.967
  O       53.154      27.446     -37.249
  H       52.875      27.448     -36.317
  H       55.475      23.740     -36.075
  H       56.367      25.240     -36.010
  H       56.111      24.441     -37.543

 6  7  8  9  10  11  12  13  14  15  16  26  30  31  32  33  35 0
 6-311+G(2d,p)
 ****
 37  38 0
 6-311+G(2d,p)
 ****
 1  2  3  4  5  17  18  19  20  21  22  23  24  25 0
 3-21G
 ****
 27  28  29  34  36  39  40  41  42  43  44  45  46 0
 3-21G
 ****


