%nproc=1
%NoSave
%Mem=1900MB
#P OB98/GEN NMR

erre ene a

0 1
  C      -93.641    -203.069     -36.206
  O      -94.241    -204.340     -36.384
  P      -93.497    -205.406     -37.323
  C      -95.392    -205.633     -39.084
  O      -94.056    -205.225     -38.816
  C      -95.466    -206.433     -40.383
  O      -95.308    -205.537     -41.518
  C      -94.387    -207.513     -40.506
  O      -94.916    -208.637     -41.225
  C      -93.335    -206.867     -41.385
  O      -92.528    -207.840     -42.045
  C      -94.217    -206.035     -42.320
  N      -91.377    -204.684     -46.278
  C      -92.167    -205.804     -46.107
  N      -92.125    -206.727     -47.092
  N      -92.937    -205.997     -45.066
  C      -92.872    -204.991     -44.157
  C      -92.140    -203.828     -44.221
  C      -91.285    -203.633     -45.374
  O      -90.538    -202.678     -45.573
  N      -92.362    -203.033     -43.128
  C      -93.191    -203.730     -42.377
  N      -93.504    -204.939     -42.943
  O      -94.125    -206.799     -36.850
  O      -92.009    -205.419     -37.193
  H      -93.137    -208.483     -42.456
  H      -93.479    -207.289     -36.312
  H      -90.793    -204.587     -47.091
  H      -93.573    -203.421     -41.415
  H      -94.651    -206.651     -43.117
  H      -92.678    -206.230     -40.782
  H      -91.504    -206.669     -47.888
  H      -93.975    -207.853     -39.549
  H      -92.661    -207.575     -46.970
  H      -96.466    -206.878     -40.466
  H      -96.025    -204.747     -39.172
  H      -95.765    -206.236     -38.250
  P      -94.957    -210.029     -40.423
  C      -92.699    -210.713     -41.530
  O      -93.439    -210.533     -40.337
  O      -95.635    -211.036     -41.464
  O      -95.697    -209.966     -39.127
  H      -96.073    -211.769     -40.996
  H      -91.859    -210.012     -41.531
  H      -93.309    -210.543     -42.423
  H      -92.315    -211.737     -41.557
  H      -94.251    -202.474     -35.559
  H      -93.548    -202.583     -37.155
  H      -92.671    -203.190     -35.770

 3  4  5  6  7  8  9  10  11  12  23  26  30  31 0
 6-311+G(2d,p)
 ****
 33  35  36  37  38 0
 6-311+G(2d,p)
 ****
 1  2  13  14  15  16  17  18  19  20  21  22  24  25 0
 3-21G
 ****
 27  28  29  32  34  39  40  41  42  43  44  45  46  47  48  49 0
 3-21G
 ****


