%nproc=1
%NoSave
%Mem=1900MB
#P OB98/GEN NMR

erre ene a

0 1
  C       84.619    -790.812    -272.766
  O       83.816    -791.603    -273.619
  P       83.135    -790.943    -274.908
  C       85.012    -791.341    -276.614
  O       84.303    -790.373    -275.850
  C       84.926    -791.005    -278.104
  O       83.573    -790.673    -278.467
  C       85.764    -789.799    -278.517
  O       87.134    -790.148    -278.602
  C       85.115    -789.434    -279.847
  O       85.614    -790.266    -280.903
  C       83.634    -789.748    -279.573
  N       80.501    -786.230    -281.523
  C       81.241    -787.193    -282.107
  N       82.092    -788.070    -281.519
  C       82.136    -787.855    -280.192
  C       81.470    -786.891    -279.466
  C       80.587    -786.057    -280.186
  N       79.772    -785.114    -279.593
  N       81.804    -786.969    -278.126
  C       82.675    -787.961    -278.058
  N       82.851    -788.568    -279.270
  O       82.028    -789.980    -274.619
  O       82.588    -792.198    -275.733
  H       86.558    -790.039    -281.026
  H       81.621    -792.129    -275.826
  H       81.146    -787.283    -283.184
  H       83.175    -788.290    -277.151
  H       83.156    -790.241    -280.427
  H       85.303    -788.391    -280.131
  H       85.613    -788.985    -277.806
  H       85.217    -791.894    -278.666
  H       84.565    -792.323    -276.435
  H       79.086    -784.679    -280.183
  H       79.608    -785.180    -278.592
  H       86.053    -791.363    -276.295
  P       88.245    -789.004    -278.597
  C       88.672    -789.127    -276.075
  O       88.227    -788.319    -277.150
  O       88.190    -788.042    -279.748
  O       89.624    -789.804    -278.589
  H       90.307    -789.299    -279.076
  H       87.895    -789.842    -275.800
  H       88.892    -788.483    -275.220
  H       89.591    -789.667    -276.359
  H       84.988    -791.415    -271.963
  H       84.034    -790.009    -272.369
  H       85.443    -790.413    -273.320

 3  4  5  6  7  8  9  10  11  12  22  25  29  30  31  32 0
 6-311+G(2d,p)
 ****
 33  36  37 0
 6-311+G(2d,p)
 ****
 1  2  13  14  15  16  17  18  19  20  21  23  24  26 0
 3-21G
 ****
 27  28  34  35  38  39  40  41  42  43  44  45  46  47  48 0
 3-21G
 ****


