%nproc=1
%NoSave
%Mem=1900MB
#P OB98/GEN NMR

erre ene a

0 1
  C      -45.189      12.238      50.008
  O      -44.365      11.641      49.021
  P      -44.897      10.302      48.314
  C      -44.149      11.428      46.057
  O      -44.204      10.266      46.870
  C      -43.169      11.216      44.900
  O      -41.815      11.209      45.398
  C      -43.337       9.894      44.163
  O      -44.446       9.919      43.278
  C      -41.981       9.763      43.479
  O      -41.944      10.568      42.288
  C      -41.032      10.347      44.545
  N      -40.338       9.322      45.321
  C      -38.972       9.195      45.089
  O      -38.358       9.893      44.284
  N      -38.334       8.218      45.807
  C      -38.924       7.335      46.663
  O      -38.312       6.451      47.247
  C      -40.375       7.497      46.842
  C      -41.004       8.467      46.175
  O      -46.418      10.705      48.028
  O      -44.712       9.083      49.153
  H      -46.524      11.668      47.929
  H      -41.098      10.364      41.843
  H      -37.339       8.122      45.673
  H      -40.880       6.809      47.508
  H      -42.074       8.594      46.288
  H      -40.280      10.989      44.071
  H      -41.754       8.733      43.186
  H      -43.463       9.078      44.885
  H      -43.273      12.059      44.206
  H      -43.818      12.273      46.666
  H      -45.152      11.642      45.676
  P      -44.964       8.496      42.733
  C      -47.445       9.314      42.697
  O      -46.350       8.781      41.986
  O      -45.389       7.777      44.098
  O      -43.943       7.754      41.935
  H      -45.860       8.370      44.706
  H      -48.143       9.761      41.984
  H      -47.125      10.081      43.406
  H      -47.957       8.511      43.234
  H      -44.710      13.116      50.389
  H      -45.349      11.544      50.806
  H      -46.130      12.505      49.573

 3  4  5  6  7  8  9  10  11  12  13  24  28  29  30  31  32 0
 6-311+G(2d,p)
 ****
 33  34 0
 6-311+G(2d,p)
 ****
 1  2  14  15  16  17  18  19  20  21  22  23  25  26  27 0
 3-21G
 ****
 35  36  37  38  39  40  41  42  43  44  45 0
 3-21G
 ****


