%nproc=1
%NoSave
%Mem=1900MB
#P OB98/GEN NMR

erre ene a

0 1
  C      131.880    -526.470    -235.777
  O      131.072    -527.133    -236.727
  H      131.725    -526.932    -234.801
  H      131.599    -525.417    -235.713
  H      132.937    -526.555    -236.047
  P      131.160    -526.623    -238.245
  C      129.996    -524.297    -238.122
  O      131.220    -525.017    -238.145
  C      130.258    -522.786    -238.167
  O      130.930    -522.461    -239.410
  C      128.984    -521.947    -238.091
  O      129.199    -520.837    -237.211
  C      128.762    -521.464    -239.509
  O      128.025    -520.246    -239.567
  C      130.200    -521.401    -240.053
  N      130.244    -521.524    -241.507
  C      130.988    -520.560    -242.202
  O      131.557    -519.662    -241.593
  N      131.025    -520.615    -243.570
  C      130.328    -521.516    -244.201
  N      130.386    -521.506    -245.556
  C      129.485    -522.515    -243.509
  C      129.503    -522.464    -242.176
  O      129.690    -526.906    -238.805
  O      132.247    -527.238    -239.065
  H      127.224    -520.347    -238.996
  H      129.657    -526.845    -239.788
  H      128.909    -523.233    -244.076
  H      128.911    -523.164    -241.588
  H      130.669    -520.444    -239.764
  H      128.195    -522.226    -240.069
  H      128.120    -522.511    -237.739
  H      130.954    -522.534    -237.364
  H      130.961    -520.797    -245.991
  H      129.457    -524.549    -237.199
  H      129.860    -522.133    -246.151
  H      129.387    -524.588    -238.980
  P      128.608    -520.993    -235.721
  C      126.071    -520.629    -236.102
  O      127.110    -521.560    -235.854
  O      128.417    -519.490    -235.233
  O      129.498    -521.781    -234.819
  H      129.149    -519.216    -234.666
  H      125.136    -521.146    -236.166
  H      126.261    -520.120    -237.024
  H      126.031    -519.918    -235.304

 6  7  8  9  10  11  12  13  14  15  16  26  30  31  32  33  35 0
 6-311+G(2d,p)
 ****
 37  38 0
 6-311+G(2d,p)
 ****
 1  2  3  4  5  17  18  19  20  21  22  23  24  25 0
 3-21G
 ****
 27  28  29  34  36  39  40  41  42  43  44  45  46 0
 3-21G
 ****


