%nproc=1
%NoSave
%Mem=1900MB
#P OB98/GEN NMR

erre ene a

0 1
  C     -402.389     198.528     368.089
  O     -403.216     198.374     369.228
  H     -402.625     199.484     367.612
  H     -402.575     197.722     367.375
  H     -401.336     198.531     368.386
  P     -403.005     197.034     370.086
  C     -405.222     196.105     369.128
  O     -403.823     195.913     369.279
  C     -405.931     194.760     368.967
  O     -407.354     194.941     368.891
  C     -405.542     193.996     367.703
  O     -404.315     193.311     367.883
  C     -406.714     193.032     367.587
  O     -406.528     191.928     368.491
  C     -407.906     193.896     368.049
  N     -412.623     195.096     366.418
  C     -412.199     194.342     367.456
  N     -410.930     194.032     367.802
  C     -410.051     194.585     366.952
  C     -410.340     195.377     365.852
  C     -411.698     195.640     365.595
  N     -412.128     196.419     364.544
  N     -409.182     195.765     365.212
  C     -408.209     195.262     365.944
  N     -408.684     194.508     366.990
  O     -403.295     197.147     371.543
  O     -401.486     196.675     369.723
  H     -406.315     192.296     369.367
  H     -401.305     196.865     368.786
  H     -412.976     193.935     368.096
  H     -407.151     195.423     365.774
  H     -408.609     193.319     368.660
  H     -406.806     192.608     366.582
  H     -405.528     194.650     366.827
  H     -405.726     194.163     369.861
  H     -405.430     196.741     368.262
  H     -413.111     196.414     364.335
  H     -411.443     196.717     363.865
  H     -405.583     196.614     370.027
  P     -402.955     193.887     367.263
  C     -402.993     192.251     365.281
  O     -403.023     193.616     365.683
  O     -401.708     193.411     367.921
  O     -403.114     195.475     367.363
  H     -402.257     195.887     367.592
  H     -403.043     192.192     364.214
  H     -403.829     191.735     365.706
  H     -402.084     191.799     365.621

 6  7  8  9  10  11  12  13  14  15  25  28  32  33  34  35 0
 6-311+G(2d,p)
 ****
 36  39  40 0
 6-311+G(2d,p)
 ****
 1  2  3  4  5  16  17  18  19  20  21  22  23  24 0
 3-21G
 ****
 26  27  29  30  31  37  38  41  42  43  44  45  46  47 0
 3-21G
 ****
 48 0
 3-21G
 ****


