%nproc=1
%NoSave
%Mem=1900MB
#P OB98/GEN NMR

erre ene a

0 1
  C     -106.993     104.900      -3.214
  O     -107.727     105.134      -4.401
  H     -107.616     104.321      -2.526
  H     -106.730     105.846      -2.734
  H     -106.087     104.329      -3.431
  P     -107.027     105.974      -5.572
  C     -106.196     108.419      -5.602
  O     -107.209     107.517      -5.176
  C     -106.774     109.822      -5.754
  O     -107.767     109.846      -6.797
  C     -107.455     110.351      -4.492
  O     -106.491     110.855      -3.582
  C     -108.338     111.434      -5.090
  O     -107.541     112.592      -5.406
  C     -108.826     110.755      -6.384
  N     -113.722     110.479      -7.667
  C     -112.782     111.450      -7.957
  N     -113.224     112.520      -8.654
  N     -111.531     111.386      -7.582
  C     -111.253     110.294      -6.833
  C     -112.102     109.274      -6.466
  C     -113.470     109.326      -6.936
  O     -114.331     108.479      -6.715
  N     -111.476     108.367      -5.649
  C     -110.240     108.819      -5.552
  N     -110.057     109.995      -6.242
  O     -107.461     105.654      -6.971
  O     -105.464     105.719      -5.353
  H     -107.280     112.989      -4.555
  H     -105.152     104.963      -5.884
  H     -114.675     110.595      -7.969
  H     -109.443     108.336      -5.002
  H     -108.980     111.473      -7.197
  H     -109.134     111.758      -4.420
  H     -114.209     112.749      -8.713
  H     -108.099     109.594      -4.029
  H     -112.563     113.265      -8.832
  H     -105.960     110.488      -6.069
  H     -105.813     108.057      -6.562
  H     -105.374     108.437      -4.879
  P     -106.479     110.389      -2.045
  C     -107.943     110.948       0.012
  O     -107.628     111.257      -1.340
  O     -105.147     110.460      -1.379
  O     -107.115     108.924      -2.064
  H     -106.450     108.206      -2.207
  H     -108.720     111.599       0.355
  H     -107.073     111.081       0.620
  H     -108.273     109.932       0.078

 6  7  8  9  10  11  12  13  14  15  26  29  33  34 0
 6-311+G(2d,p)
 ****
 36  38  39  40  41 0
 6-311+G(2d,p)
 ****
 1  2  3  4  5  16  17  18  19  20  21  22  23  24  25 0
 3-21G
 ****
 27  28  30  31  32  35  37  42  43  44  45  46  47 0
 3-21G
 ****
 48  49 0
 3-21G
 ****


