%nproc=1
%NoSave
%Mem=1900MB
#P OB98/GEN NMR

erre ene a

0 1
  C       92.396      88.468    -242.130
  O       92.819      87.767    -240.975
  P       94.369      87.695    -240.588
  C       94.815      85.218    -241.066
  O       94.666      86.206    -240.055
  C       95.853      84.168    -240.669
  O       97.142      84.821    -240.488
  C       95.538      83.414    -239.367
  O       96.039      82.084    -239.531
  C       96.384      84.152    -238.339
  O       96.634      83.382    -237.172
  C       97.620      84.460    -239.177
  N      101.673      85.658    -236.295
  C      101.116      84.470    -236.614
  N      100.019      84.234    -237.367
  C       99.495      85.387    -237.810
  C       99.931      86.675    -237.547
  C      101.093      86.791    -236.761
  N      101.695      87.992    -236.456
  N       99.091      87.602    -238.132
  C       98.168      86.886    -238.742
  N       98.405      85.541    -238.624
  O       94.852      88.783    -239.688
  O       95.127      87.730    -241.996
  H       97.042      82.536    -237.440
  H       95.537      88.607    -242.128
  H      101.615      83.592    -236.216
  H       97.310      87.284    -239.267
  H       98.275      83.587    -239.284
  H       95.870      85.072    -238.036
  H       94.477      83.401    -239.108
  H       95.965      83.467    -241.501
  H       95.143      85.720    -241.980
  H      102.591      87.955    -236.001
  H      101.446      88.817    -237.002
  H       93.850      84.740    -241.266
  P       95.321      80.863    -238.780
  C       97.557      79.997    -237.874
  O       96.413      79.700    -238.657
  O       94.004      80.451    -239.343
  O       95.180      81.388    -237.267
  H       94.523      80.847    -236.795
  H       98.263      80.588    -238.474
  H       98.038      79.062    -237.575
  H       97.286      80.563    -236.980
  H       91.332      88.402    -242.218
  H       92.853      88.037    -242.996
  H       92.684      89.495    -242.049

 3  4  5  6  7  8  9  10  11  12  22  25  29  30  31  32 0
 6-311+G(2d,p)
 ****
 33  36  37 0
 6-311+G(2d,p)
 ****
 1  2  13  14  15  16  17  18  19  20  21  23  24  26 0
 3-21G
 ****
 27  28  34  35  38  39  40  41  42  43  44  45  46  47  48 0
 3-21G
 ****


