%nproc=1
%NoSave
%Mem=1900MB
#P OB98/GEN NMR

erre ene a

0 1
  C     -234.792      84.013     -82.802
  O     -235.275      85.279     -82.401
  H     -235.230      83.228     -82.180
  H     -235.079      83.840     -83.843
  H     -233.701      83.983     -82.728
  P     -234.965      85.709     -80.885
  C     -232.879      87.240     -80.789
  O     -234.290      87.166     -80.946
  C     -232.430      88.700     -80.771
  O     -232.656      89.258     -82.093
  C     -233.175      89.575     -79.749
  O     -232.246      90.318     -78.951
  C     -233.970      90.546     -80.602
  O     -234.090      91.835     -80.009
  C     -233.170      90.582     -81.900
  N     -235.586      94.534     -84.033
  C     -234.567      94.484     -83.147
  N     -233.905      93.401     -82.693
  C     -234.370      92.280     -83.273
  C     -235.385      92.178     -84.209
  C     -236.024      93.374     -84.577
  N     -237.099      93.421     -85.438
  N     -235.589      90.857     -84.571
  C     -234.739      90.171     -83.832
  N     -233.993      90.988     -83.020
  O     -233.751      84.746     -80.473
  O     -236.118      85.565     -79.951
  H     -234.681      92.363     -80.576
  H     -234.032      84.190     -79.722
  H     -234.245      95.439     -82.744
  H     -234.655      89.091     -83.809
  H     -232.317      91.270     -81.833
  H     -234.976      90.142     -80.763
  H     -233.828      88.991     -79.094
  H     -231.348      88.732     -80.587
  H     -232.390      86.726     -81.625
  H     -237.568      94.304     -85.554
  H     -237.498      92.549     -85.757
  H     -232.598      86.741     -79.856
  P     -232.365      90.126     -77.358
  C     -231.834      87.690     -76.623
  O     -231.322      88.984     -76.916
  O     -233.797      89.436     -77.180
  O     -232.276      91.403     -76.589
  H     -234.352      89.967     -76.580
  H     -231.029      87.042     -76.346
  H     -232.327      87.297     -77.488
  H     -232.532      87.757     -75.815

 6  7  8  9  10  11  12  13  14  15  25  28  32  33  34  35 0
 6-311+G(2d,p)
 ****
 36  39  40 0
 6-311+G(2d,p)
 ****
 1  2  3  4  5  16  17  18  19  20  21  22  23  24 0
 3-21G
 ****
 26  27  29  30  31  37  38  41  42  43  44  45  46  47  48 0
 3-21G
 ****


