%nproc=1
%NoSave
%Mem=1900MB
#P OB98/GEN NMR

erre ene a

0 1
  C      -27.573    -121.600    -226.542
  O      -26.859    -122.781    -226.169
  P      -26.547    -123.851    -227.327
  C      -29.036    -124.641    -227.504
  O      -27.922    -124.033    -228.138
  C      -29.822    -125.503    -228.495
  O      -30.455    -124.648    -229.498
  C      -28.982    -126.546    -229.238
  O      -29.802    -127.716    -229.386
  C      -28.742    -125.897    -230.588
  O      -28.422    -126.853    -231.590
  C      -30.073    -125.166    -230.791
  N      -29.992    -124.105    -231.790
  C      -30.586    -124.351    -233.022
  O      -31.092    -125.433    -233.314
  N      -30.536    -123.329    -233.931
  C      -29.892    -122.137    -233.754
  O      -29.877    -121.249    -234.598
  C      -29.182    -121.975    -232.472
  C      -29.263    -122.951    -231.569
  O      -26.404    -125.198    -226.481
  O      -25.356    -123.487    -228.152
  H      -27.017    -125.254    -225.730
  H      -27.509    -127.173    -231.446
  H      -30.988    -123.476    -234.820
  H      -28.613    -121.070    -232.322
  H      -28.736    -122.878    -230.626
  H      -30.853    -125.873    -231.101
  H      -27.917    -125.181    -230.516
  H      -28.061    -126.809    -228.708
  H      -30.631    -126.001    -227.943
  H      -29.699    -123.868    -227.106
  H      -28.685    -125.233    -226.654
  P      -29.146    -129.151    -229.060
  C      -28.118    -129.612    -231.421
  O      -27.906    -129.338    -230.056
  O      -30.263    -130.116    -229.692
  O      -28.899    -129.419    -227.613
  H      -30.542    -129.846    -230.583
  H      -27.176    -129.470    -231.961
  H      -28.869    -128.940    -231.852
  H      -28.440    -130.650    -231.549
  H      -27.711    -120.980    -225.681
  H      -28.527    -121.872    -226.943
  H      -27.015    -121.064    -227.281

 3  4  5  6  7  8  9  10  11  12  13  24  28  29  30  31  32 0
 6-311+G(2d,p)
 ****
 33  34 0
 6-311+G(2d,p)
 ****
 1  2  14  15  16  17  18  19  20  21  22  23  25  26  27 0
 3-21G
 ****
 35  36  37  38  39  40  41  42  43  44  45 0
 3-21G
 ****


