%nproc=1
%NoSave
%Mem=1900MB
#P OB98/GEN NMR

erre ene a

0 1
  C     -870.224     161.878    -219.750
  O     -869.415     161.327    -220.793
  P     -870.031     160.125    -221.652
  C     -868.343     158.547    -220.409
  O     -868.923     158.970    -221.639
  C     -867.797     157.128    -220.542
  O     -868.858     156.204    -220.935
  C     -866.717     156.973    -221.605
  O     -865.483     157.517    -221.163
  C     -866.719     155.462    -221.803
  O     -865.960     154.820    -220.768
  C     -868.214     155.119    -221.661
  N     -868.875     154.870    -222.935
  C     -869.267     153.545    -223.155
  O     -869.054     152.635    -222.361
  N     -869.893     153.299    -224.351
  C     -870.135     154.226    -225.332
  O     -870.713     153.950    -226.371
  C     -869.660     155.593    -225.058
  C     -869.059     155.850    -223.891
  O     -869.968     160.730    -223.126
  O     -871.391     159.717    -221.192
  H     -869.188     161.291    -223.271
  H     -866.182     153.864    -220.810
  H     -870.195     152.363    -224.526
  H     -869.815     156.339    -225.823
  H     -868.695     156.846    -223.673
  H     -868.341     154.228    -221.032
  H     -866.268     155.164    -222.759
  H     -867.030     157.473    -222.532
  H     -867.421     156.811    -219.566
  H     -869.103     158.567    -219.623
  H     -867.552     159.243    -220.131
  P     -865.093     158.973    -221.715
  C     -863.761     158.181    -223.822
  O     -863.737     158.790    -222.553
  O     -864.629     159.701    -220.359
  O     -866.199     159.667    -222.437
  H     -864.055     159.141    -219.806
  H     -862.845     158.460    -224.355
  H     -864.624     158.510    -224.403
  H     -863.783     157.093    -223.707
  H     -869.690     162.667    -219.263
  H     -870.458     161.114    -219.038
  H     -871.130     162.265    -220.168

 3  4  5  6  7  8  9  10  11  12  13  24  28  29  30  31  32 0
 6-311+G(2d,p)
 ****
 33  34 0
 6-311+G(2d,p)
 ****
 1  2  14  15  16  17  18  19  20  21  22  23  25  26  27 0
 3-21G
 ****
 35  36  37  38  39  40  41  42  43  44  45 0
 3-21G
 ****


