%nproc=1
%NoSave
%Mem=1900MB
#P OB98/GEN NMR

erre ene a

0 1
  C      505.321     347.292    -136.672
  O      505.983     347.550    -135.446
  P      506.120     349.082    -134.988
  C      505.802     348.350    -132.516
  O      506.606     349.044    -133.465
  C      506.184     348.761    -131.096
  O      506.024     350.182    -130.935
  C      505.321     348.129    -130.016
  O      505.706     346.786    -129.790
  C      505.585     349.056    -128.838
  O      506.759     348.648    -128.117
  C      505.807     350.423    -129.525
  N      504.699     351.342    -129.309
  C      504.854     352.237    -128.245
  O      505.870     352.206    -127.547
  N      503.836     353.117    -127.978
  C      502.758     353.103    -128.705
  N      501.788     354.004    -128.397
  C      502.554     352.164    -129.822
  C      503.547     351.315    -130.063
  O      504.599     349.572    -134.891
  O      506.931     349.937    -135.911
  H      506.737     349.144    -127.270
  H      504.535     350.536    -135.029
  H      501.640     352.188    -130.399
  H      503.481     350.584    -130.869
  H      506.720     350.896    -129.147
  H      504.756     349.054    -128.122
  H      504.258     348.180    -130.292
  H      507.241     348.512    -130.937
  H      501.955     354.631    -127.619
  H      505.964     347.272    -132.623
  H      500.925     354.086    -128.916
  H      504.746     348.569    -132.714
  P      504.572     345.662    -129.873
  C      506.601     344.098    -129.702
  O      505.265     344.337    -129.295
  O      504.518     345.351    -131.446
  O      503.230     346.004    -129.321
  H      503.781     344.740    -131.641
  H      506.999     343.260    -129.118
  H      507.219     344.981    -129.522
  H      506.623     343.832    -130.763
  H      505.302     346.237    -136.852
  H      505.842     347.780    -137.469
  H      504.319     347.663    -136.621

 3  4  5  6  7  8  9  10  11  12  13  21  23  27  28  29  30  32 0
 6-311+G(2d,p)
 ****
 34  35 0
 6-311+G(2d,p)
 ****
 1  2  14  15  16  17  18  19  20  22  24  25  26 0
 3-21G
 ****
 31  33  36  37  38  39  40  41  42  43  44  45  46 0
 3-21G
 ****


