%nproc=1
%NoSave
%Mem=1900MB
#P OB98/GEN NMR

erre ene a

0 1
  C        3.775      12.278    -107.824
  O        2.362      12.444    -107.665
  P        1.636      11.553    -106.545
  C       -0.866      11.342    -105.797
  O        0.064      11.753    -106.789
  C       -2.186      12.089    -105.978
  O       -2.011      13.504    -105.726
  C       -2.766      11.996    -107.381
  O       -3.335      10.719    -107.624
  C       -3.762      13.148    -107.359
  O       -4.973      12.750    -106.698
  C       -3.017      14.197    -106.504
  N       -2.432      15.270    -107.297
  C       -3.241      16.385    -107.496
  O       -4.388      16.471    -107.061
  N       -2.690      17.397    -108.234
  C       -1.451      17.390    -108.804
  O       -1.007      18.332    -109.448
  C       -0.663      16.164    -108.602
  C       -1.180      15.175    -107.870
  O        1.947      12.401    -105.227
  O        2.118      10.142    -106.521
  H        1.953      13.361    -105.385
  H       -4.737      12.588    -105.763
  H       -3.255      18.220    -108.379
  H        0.315      16.113    -109.063
  H       -0.616      14.261    -107.712
  H       -3.704      14.648    -105.778
  H       -4.032      13.488    -108.363
  H       -1.983      12.197    -108.122
  H       -2.903      11.695    -105.246
  H       -0.467      11.554    -104.801
  H       -1.010      10.260    -105.873
  P       -2.616       9.802    -108.731
  C       -2.422       7.202    -108.906
  O       -3.195       8.321    -108.538
  O       -1.129       9.718    -108.144
  O       -2.703      10.355    -110.115
  H       -1.107       9.556    -107.187
  H       -2.816       6.319    -108.394
  H       -1.373       7.329    -108.627
  H       -2.496       7.044    -109.985
  H        4.126      12.928    -108.598
  H        3.988      11.263    -108.087
  H        4.268      12.519    -106.906

 3  4  5  6  7  8  9  10  11  12  13  24  28  29  30  31  32 0
 6-311+G(2d,p)
 ****
 33  34 0
 6-311+G(2d,p)
 ****
 1  2  14  15  16  17  18  19  20  21  22  23  25  26  27 0
 3-21G
 ****
 35  36  37  38  39  40  41  42  43  44  45 0
 3-21G
 ****


