%nproc=1
%NoSave
%Mem=1900MB
#P OB98/GEN NMR

erre ene a

0 1
  C     -436.230     552.408    -617.135
  O     -437.518     552.248    -617.688
  H     -435.505     551.920    -617.793
  H     -436.187     551.932    -616.148
  H     -435.961     553.464    -617.042
  P     -438.721     553.133    -617.104
  C     -439.788     553.972    -619.299
  O     -439.001     554.303    -618.161
  C     -438.906     553.808    -620.543
  O     -438.000     552.693    -620.341
  C     -439.741     553.500    -621.793
  O     -439.112     553.949    -622.987
  C     -439.768     551.977    -621.795
  O     -440.031     551.424    -623.089
  C     -438.382     551.644    -621.251
  N     -435.654     547.440    -620.302
  C     -435.417     548.442    -621.229
  N     -434.316     548.309    -621.993
  N     -436.218     549.469    -621.398
  C     -437.320     549.435    -620.612
  C     -437.672     548.485    -619.678
  C     -436.764     547.376    -619.477
  O     -436.937     546.441    -618.693
  N     -438.876     548.788    -619.089
  C     -439.249     549.908    -619.657
  N     -438.325     550.360    -620.580
  O     -438.052     553.922    -615.881
  O     -439.931     552.370    -616.663
  H     -439.320     551.737    -623.682
  H     -438.734     554.213    -615.247
  H     -435.000     546.685    -620.194
  H     -440.161     550.443    -619.439
  H     -437.645     551.618    -622.069
  H     -440.577     551.647    -621.131
  H     -433.797     547.447    -622.026
  H     -440.745     553.906    -621.737
  H     -434.294     548.853    -622.861
  H     -438.280     554.699    -620.674
  H     -440.502     554.786    -619.437
  H     -440.361     553.061    -619.112
  P     -439.111     555.519    -623.306
  C     -436.520     555.939    -623.660
  O     -437.701     556.153    -622.904
  O     -440.120     556.126    -622.217
  O     -439.526     555.868    -624.699
  H     -440.908     556.505    -622.658
  H     -435.704     556.459    -623.202
  H     -436.663     556.305    -624.655
  H     -436.302     554.892    -623.692

 6  7  8  9  10  11  12  13  14  15  26  29  33  34 0
 6-311+G(2d,p)
 ****
 36  38  39  40  41 0
 6-311+G(2d,p)
 ****
 1  2  3  4  5  16  17  18  19  20  21  22  23  24  25 0
 3-21G
 ****
 27  28  30  31  32  35  37  42  43  44  45  46  47 0
 3-21G
 ****
 48  49 0
 3-21G
 ****


