%nproc=1
%NoSave
%Mem=1900MB
#P OB98/GEN NMR

erre ene a

0 1
  C     -387.278    -498.735     326.751
  O     -387.518    -497.393     326.373
  P     -388.754    -496.585     326.977
  C     -389.842    -495.993     324.730
  O     -389.194    -495.480     325.891
  C     -390.112    -494.889     323.706
  O     -391.026    -493.916     324.291
  C     -388.863    -494.119     323.248
  O     -389.084    -493.759     321.877
  C     -388.900    -492.865     324.113
  O     -388.146    -491.794     323.572
  C     -390.408    -492.622     324.160
  N     -391.105    -487.803     325.737
  C     -390.655    -488.309     324.568
  N     -390.470    -489.604     324.232
  C     -390.815    -490.406     325.255
  C     -391.257    -490.035     326.513
  C     -391.426    -488.656     326.737
  N     -391.913    -488.125     327.908
  N     -391.448    -491.152     327.311
  C     -391.124    -492.177     326.548
  N     -390.792    -491.777     325.274
  O     -388.557    -496.047     328.354
  O     -389.965    -497.631     326.936
  H     -388.445    -490.960     323.975
  H     -390.162    -497.949     327.840
  H     -390.422    -487.585     323.804
  H     -391.104    -493.214     326.854
  H     -390.785    -492.156     323.239
  H     -388.505    -493.091     325.104
  H     -387.931    -494.674     323.361
  H     -390.623    -495.335     322.854
  H     -390.792    -496.435     325.047
  H     -392.115    -487.137     327.919
  H     -392.398    -488.740     328.558
  H     -389.230    -496.786     324.282
  P     -387.956    -494.082     320.778
  C     -387.280    -491.610     320.608
  O     -387.767    -492.749     319.917
  O     -388.164    -495.336     320.000
  O     -386.598    -494.136     321.645
  H     -385.902    -494.590     321.131
  H     -388.102    -491.138     321.156
  H     -386.875    -490.901     319.882
  H     -386.492    -491.894     321.315
  H     -386.410    -499.099     326.242
  H     -388.124    -499.336     326.489
  H     -387.119    -498.785     327.808

 3  4  5  6  7  8  9  10  11  12  22  25  29  30  31  32 0
 6-311+G(2d,p)
 ****
 33  36  37 0
 6-311+G(2d,p)
 ****
 1  2  13  14  15  16  17  18  19  20  21  23  24  26 0
 3-21G
 ****
 27  28  34  35  38  39  40  41  42  43  44  45  46  47  48 0
 3-21G
 ****


