%nproc=1
%NoSave
%Mem=1900MB
#P OB98/GEN NMR

erre ene a

0 1
  C     -184.412     337.624     179.447
  O     -183.569     337.217     180.503
  H     -184.256     338.690     179.265
  H     -185.457     337.468     179.726
  H     -184.187     337.077     178.527
  P     -183.381     335.650     180.785
  C     -181.639     334.255     182.079
  O     -182.257     335.524     181.926
  C     -180.185     334.408     182.535
  O     -179.400     334.942     181.431
  C     -180.004     335.357     183.730
  O     -178.874     334.889     184.481
  C     -179.672     336.664     183.037
  O     -179.079     337.585     183.925
  C     -178.789     336.165     181.892
  N     -178.651     337.148     180.820
  C     -177.378     337.672     180.618
  O     -176.405     337.365     181.311
  N     -177.259     338.599     179.618
  C     -178.284     339.088     178.861
  O     -178.126     339.945     178.000
  C     -179.616     338.532     179.150
  C     -179.737     337.600     180.098
  O     -183.147     334.799     179.581
  O     -184.715     335.226     181.565
  H     -178.975     338.458     183.491
  H     -184.934     334.293     181.372
  H     -176.341     338.980     179.454
  H     -180.452     338.907     178.572
  H     -180.705     337.171     180.333
  H     -177.779     335.918     182.255
  H     -180.578     337.132     182.644
  H     -180.887     335.420     184.367
  H     -179.782     333.412     182.759
  H     -181.670     333.745     181.109
  H     -182.199     333.662     182.810
  P     -179.037     334.177     185.911
  C     -177.553     333.503     187.907
  O     -177.621     334.204     186.664
  O     -179.675     332.825     185.856
  O     -179.932     335.189     186.770
  H     -180.440     334.693     187.442
  H     -176.567     333.591     188.313
  H     -177.782     332.470     187.747
  H     -178.259     333.923     188.592

 6  7  8  9  10  11  12  13  14  15  16  26  31  32  33  34  35 0
 6-311+G(2d,p)
 ****
 36  37 0
 6-311+G(2d,p)
 ****
 1  2  3  4  5  17  18  19  20  21  22  23  24  25 0
 3-21G
 ****
 27  28  29  30  38  39  40  41  42  43  44  45 0
 3-21G
 ****


