%nproc=1
%NoSave
%Mem=1900MB
#P OB98/GEN NMR

erre ene a

0 1
  C      -65.777      92.797     216.440
  O      -64.618      92.397     215.738
  H      -65.655      93.840     216.751
  H      -65.908      92.182     217.336
  H      -66.664      92.725     215.804
  P      -64.600      90.956     215.039
  C      -63.220      90.013     217.011
  O      -64.385      89.873     216.202
  C      -63.090      88.816     217.949
  O      -64.223      88.763     218.847
  C      -63.070      87.468     217.231
  O      -61.809      87.226     216.632
  C      -63.424      86.529     218.373
  O      -62.274      86.245     219.182
  C      -64.458      87.371     219.158
  N      -65.840      86.992     218.861
  C      -66.208      85.684     219.176
  O      -65.425      84.857     219.649
  N      -67.508      85.349     218.902
  C      -68.418      86.134     218.253
  O      -69.544      85.749     217.945
  C      -67.971      87.492     217.921
  C      -66.722      87.854     218.234
  O      -63.683      90.816     213.869
  O      -66.128      90.725     214.613
  H      -61.600      85.866     218.583
  H      -66.219      90.854     213.648
  H      -67.790      84.403     219.111
  H      -68.668      88.148     217.417
  H      -66.374      88.849     217.994
  H      -64.297      87.257     220.236
  H      -63.813      85.577     218.018
  H      -63.868      87.432     216.481
  H      -62.182      88.948     218.557
  H      -63.311      90.934     217.600
  H      -62.341      90.094     216.358
  P      -61.712      86.327     215.314
  C      -60.751      84.361     216.667
  O      -61.771      84.788     215.769
  O      -60.592      86.670     214.387
  O      -63.128      86.544     214.597
  H      -62.989      86.935     213.713
  H      -60.890      83.326     216.899
  H      -60.803      84.938     217.567
  H      -59.793      84.498     216.210

 6  7  8  9  10  11  12  13  14  15  16  26  31  32  33  34  35 0
 6-311+G(2d,p)
 ****
 36  37 0
 6-311+G(2d,p)
 ****
 1  2  3  4  5  17  18  19  20  21  22  23  24  25 0
 3-21G
 ****
 27  28  29  30  38  39  40  41  42  43  44  45 0
 3-21G
 ****


