%nproc=1
%NoSave
%Mem=1900MB
#P OB98/GEN NMR

erre ene a

0 1
  C     -200.494     532.415    -215.493
  O     -199.422     532.168    -214.597
  P     -199.599     530.960    -213.539
  C     -197.814     529.263    -214.451
  O     -199.181     529.625    -214.320
  C     -197.397     529.292    -215.933
  O     -197.393     530.641    -216.413
  C     -195.999     528.754    -216.214
  O     -195.961     527.340    -216.183
  C     -195.706     529.373    -217.572
  O     -196.348     528.603    -218.615
  C     -196.376     530.754    -217.438
  N     -195.434     531.828    -217.164
  C     -195.864     533.127    -217.406
  O     -196.982     533.388    -217.833
  N     -194.943     534.121    -217.160
  C     -193.655     533.948    -216.762
  O     -192.855     534.867    -216.610
  C     -193.229     532.549    -216.545
  C     -194.126     531.569    -216.751
  O     -201.197     530.888    -213.447
  O     -198.894     531.205    -212.248
  H     -201.629     531.209    -214.264
  H     -195.988     527.691    -218.533
  H     -195.249     535.072    -217.309
  H     -192.216     532.358    -216.248
  H     -193.838     530.538    -216.615
  H     -196.920     531.010    -218.373
  H     -194.641     529.413    -217.801
  H     -195.281     529.150    -215.466
  H     -198.143     528.730    -216.514
  H     -197.683     528.244    -214.062
  H     -197.185     529.954    -213.871
  P     -194.834     526.657    -215.251
  C     -196.059     524.751    -213.935
  O     -195.606     526.097    -213.959
  O     -194.056     527.955    -214.714
  O     -193.968     525.684    -215.975
  H     -194.659     528.682    -214.466
  H     -196.217     524.456    -212.896
  H     -195.353     524.072    -214.399
  H     -197.030     524.695    -214.475
  H     -200.243     533.236    -216.132
  H     -201.376     532.653    -214.936
  H     -200.671     531.542    -216.086

 3  4  5  6  7  8  9  10  11  12  13  24  28  29  30  31  32 0
 6-311+G(2d,p)
 ****
 33  34 0
 6-311+G(2d,p)
 ****
 1  2  14  15  16  17  18  19  20  21  22  23  25  26  27 0
 3-21G
 ****
 35  36  37  38  39  40  41  42  43  44  45 0
 3-21G
 ****


