%nproc=1
%NoSave
%Mem=1900MB
#P OB98/GEN NMR

erre ene a

0 1
  C       20.255    -215.583    -159.487
  O       19.956    -214.297    -159.998
  H       19.620    -215.772    -158.619
  H       21.302    -215.629    -159.179
  H       20.056    -216.346    -160.246
  P       20.761    -213.844    -161.310
  C       19.023    -214.527    -163.131
  O       19.645    -213.477    -162.404
  C       17.962    -213.955    -164.080
  O       16.873    -213.400    -163.281
  C       18.484    -212.820    -164.977
  O       17.745    -212.840    -166.214
  C       18.088    -211.588    -164.180
  O       18.133    -210.438    -164.992
  C       16.711    -212.026    -163.693
  N       14.308    -207.689    -162.493
  C       14.590    -208.267    -163.683
  N       15.227    -209.432    -163.920
  C       15.565    -210.029    -162.761
  C       15.350    -209.561    -161.476
  C       14.696    -208.325    -161.359
  N       14.427    -207.719    -160.152
  N       15.868    -210.447    -160.545
  C       16.378    -211.428    -161.257
  N       16.217    -211.220    -162.601
  O       21.383    -215.217    -161.849
  O       21.803    -212.799    -161.099
  H       17.770    -209.661    -164.520
  H       22.283    -215.337    -161.488
  H       14.258    -207.721    -164.564
  H       16.880    -212.303    -160.864
  H       15.959    -212.000    -164.492
  H       18.772    -211.426    -163.342
  H       19.553    -212.891    -165.188
  H       17.532    -214.771    -164.676
  H       18.556    -215.215    -162.421
  H       19.777    -215.062    -163.714
  H       13.979    -206.818    -160.160
  H       14.737    -208.163    -159.301
  P       18.544    -212.724    -167.603
  C       18.921    -215.269    -168.032
  O       18.344    -214.052    -168.481
  O       20.071    -212.860    -167.120
  O       18.355    -211.440    -168.347
  H       20.614    -212.176    -167.556
  H       18.694    -216.049    -168.728
  H       18.521    -215.520    -167.072
  H       19.982    -215.155    -167.958

 6  7  8  9  10  11  12  13  14  15  25  28  32  33  34  35 0
 6-311+G(2d,p)
 ****
 36  37  40 0
 6-311+G(2d,p)
 ****
 1  2  3  4  5  16  17  18  19  20  21  22  23  24 0
 3-21G
 ****
 26  27  29  30  31  38  39 41  42  43  44  45  46  47  48 0
 3-21G
 ****


