%nproc=1
%NoSave
%Mem=1900MB
#P OB98/GEN NMR

erre ene a

0 1
  C     -111.972    -253.110     633.510
  O     -110.821    -253.020     634.331
  H     -112.635    -252.267     633.740
  H     -112.513    -254.045     633.718
  H     -111.692    -253.064     632.457
  P     -109.697    -254.153     634.189
  C     -109.543    -256.667     634.798
  O     -110.390    -255.521     634.657
  C     -109.967    -257.476     636.014
  O     -111.388    -257.721     635.993
  C     -109.293    -258.849     636.097
  O     -107.992    -258.729     636.638
  C     -110.266    -259.574     637.025
  O     -110.045    -259.142     638.381
  C     -111.618    -259.055     636.506
  N     -114.417    -263.161     635.472
  C     -113.955    -262.684     636.681
  N     -114.251    -263.432     637.773
  N     -113.259    -261.590     636.823
  C     -112.982    -260.981     635.636
  C     -113.361    -261.367     634.368
  C     -114.190    -262.562     634.240
  O     -114.636    -263.001     633.186
  N     -112.838    -260.535     633.414
  C     -112.170    -259.630     634.101
  N     -112.209    -259.862     635.448
  O     -108.386    -253.876     634.859
  O     -109.534    -254.345     632.608
  H     -110.168    -258.169     638.394
  H     -108.826    -253.777     632.256
  H     -114.936    -264.019     635.429
  H     -111.651    -258.787     633.671
  H     -112.361    -258.975     637.311
  H     -110.151    -260.657     637.003
  H     -114.526    -264.393     637.690
  H     -109.285    -259.362     635.129
  H     -113.881    -263.126     638.663
  H     -109.749    -256.882     636.913
  H     -108.514    -256.298     634.907
  H     -109.599    -257.282     633.895
  P     -106.911    -259.905     636.469
  C     -106.733    -262.328     637.369
  O     -107.408    -261.078     637.452
  O     -105.494    -259.501     636.657
  O     -107.205    -260.529     635.018
  H     -106.715    -260.071     634.288
  H     -107.161    -263.012     638.072
  H     -105.696    -262.189     637.593
  H     -106.834    -262.723     636.380

 6  7  8  9  10  11  12  13  14  15  26  29  33  34 0
 6-311+G(2d,p)
 ****
 36  38  39  40  41 0
 6-311+G(2d,p)
 ****
 1  2  3  4  5  16  17  18  19  20  21  22  23  24  25 0
 3-21G
 ****
 27  28  30  31  32  35  37  42  43  44  45  46  47 0
 3-21G
 ****
 48  49 0
 3-21G
 ****


