%nproc=1
%NoSave
%Mem=1900MB
#P OB98/GEN NMR

erre ene a

0 1
  C     -168.976     298.403     864.252
  O     -169.759     299.055     865.234
  H     -169.460     298.527     863.279
  H     -168.910     297.334     864.474
  H     -167.977     298.839     864.203
  P     -169.194     299.157     866.729
  C     -169.427     296.603     867.018
  O     -169.758     297.890     867.529
  C     -170.006     295.520     867.924
  O     -169.363     295.561     869.221
  C     -171.499     295.671     868.190
  O     -172.268     295.255     867.081
  C     -171.656     294.815     869.438
  O     -171.744     293.425     869.094
  C     -170.342     295.114     870.194
  N     -170.509     296.096     871.260
  C     -170.571     295.595     872.562
  O     -170.526     294.401     872.822
  N     -170.727     296.533     873.553
  C     -170.928     297.869     873.368
  O     -171.144     298.648     874.287
  C     -170.876     298.341     871.976
  C     -170.675     297.445     871.005
  O     -169.392     300.474     867.409
  O     -167.636     298.814     866.568
  H     -172.464     293.348     868.434
  H     -167.113     299.636     866.639
  H     -170.781     296.190     874.502
  H     -171.024     299.391     871.792
  H     -170.642     297.773     869.965
  H     -169.944     294.195     870.638
  H     -172.553     295.063     870.001
  H     -171.727     296.716     868.454
  H     -169.788     294.540     867.471
  H     -168.336     296.509     866.984
  H     -169.821     296.511     865.998
  P     -173.404     296.212     866.484
  C     -174.968     295.457     868.375
  O     -174.818     295.641     866.976
  O     -173.296     296.495     865.022
  O     -173.245     297.556     867.339
  H     -173.037     298.299     866.732
  H     -175.946     295.074     868.582
  H     -174.839     296.395     868.874
  H     -174.232     294.763     868.724

 6  7  8  9  10  11  12  13  14  15  16  26  31  32  33  34  35 0
 6-311+G(2d,p)
 ****
 36  37 0
 6-311+G(2d,p)
 ****
 1  2  3  4  5  17  18  19  20  21  22  23  24  25 0
 3-21G
 ****
 27  28  29  30  38  39  40  41  42  43  44  45 0
 3-21G
 ****


