%nproc=1
%NoSave
%Mem=1900MB
#P OB98/GEN NMR

erre ene a

0 1
  C      477.452     745.459      -4.231
  O      478.738     744.995      -4.608
  P      479.740     744.358      -3.544
  C      481.849     745.598      -4.345
  O      480.885     745.471      -3.305
  C      482.817     746.747      -4.044
  O      482.184     748.021      -4.299
  C      483.305     746.802      -2.600
  O      484.303     745.815      -2.377
  C      483.790     748.239      -2.510
  O      485.120     748.372      -3.039
  C      482.767     748.981      -3.402
  N      481.757     749.691      -2.628
  C      482.154     750.894      -2.068
  O      483.335     751.319      -2.201
  N      481.251     751.612      -1.302
  C      480.066     751.121      -1.116
  N      479.217     751.859      -0.341
  C      479.618     749.819      -1.664
  C      480.507     749.169      -2.394
  O      480.225     742.983      -3.851
  O      478.890     744.447      -2.167
  H      485.397     749.303      -2.892
  H      478.176     743.765      -2.149
  H      478.618     749.463      -1.460
  H      480.259     748.206      -2.843
  H      483.287     749.718      -4.033
  H      483.822     748.592      -1.472
  H      482.458     746.652      -1.929
  H      483.689     746.648      -4.733
  H      479.570     752.733       0.038
  H      481.337     745.805      -5.280
  H      478.292     751.564      -0.090
  H      482.400     744.655      -4.456
  P      484.793     745.516      -0.884
  C      487.134     746.363      -1.506
  O      486.061     746.460      -0.599
  O      484.955     744.080      -0.539
  O      483.643     746.176       0.030
  H      483.422     745.555       0.751
  H      487.758     747.251      -1.410
  H      486.759     746.306      -2.547
  H      487.729     745.470      -1.278
  H      476.946     745.846      -5.091
  H      477.552     746.232      -3.498
  H      476.887     744.649      -3.819

 3  4  5  6  7  8  9  10  11  12  13  23  27  28  29  30  32 0
 6-311+G(2d,p)
 ****
 34  35 0
 6-311+G(2d,p)
 ****
 1  2  14  15  16  17  18  19  20  21  22  24  25  26 0
 3-21G
 ****
 31  33  36  37  38  39  40  41  42  43  44  45  46 0
 3-21G
 ****


