%nproc=1
%NoSave
%Mem=1900MB
#P OB98/GEN NMR

erre ene a

0 1
  C     -527.757     554.670    -345.408
  O     -528.356     553.573    -346.070
  H     -527.027     554.286    -344.683
  H     -528.506     555.240    -344.846
  H     -527.247     555.315    -346.120
  P     -529.581     553.862    -347.070
  C     -528.909     551.772    -348.435
  O     -529.942     552.451    -347.739
  C     -528.722     550.364    -347.871
  O     -528.202     550.441    -346.502
  C     -530.022     549.566    -347.759
  O     -530.419     549.099    -349.039
  C     -529.637     548.499    -346.756
  O     -528.889     547.453    -347.361
  C     -528.753     549.312    -345.770
  N     -529.497     549.767    -344.585
  C     -530.184     548.790    -343.881
  O     -530.144     547.600    -344.261
  N     -530.918     549.156    -342.787
  C     -530.936     550.401    -342.400
  N     -531.682     550.692    -341.307
  C     -530.225     551.481    -343.111
  C     -529.521     551.096    -344.193
  O     -529.398     554.983    -348.053
  O     -530.814     554.129    -346.075
  H     -529.468     547.073    -348.055
  H     -530.876     555.077    -345.847
  H     -530.263     552.499    -342.775
  H     -528.949     551.826    -344.772
  H     -527.892     548.711    -345.439
  H     -530.514     548.061    -346.290
  H     -530.811     550.193    -347.324
  H     -527.983     549.827    -348.484
  H     -532.176     549.938    -340.859
  H     -527.992     552.360    -348.320
  H     -531.708     551.617    -340.864
  H     -529.152     551.704    -349.511
  P     -531.950     549.213    -349.515
  C     -531.604     550.350    -351.807
  O     -531.894     549.124    -351.128
  O     -532.707     550.370    -348.957
  O     -532.569     547.780    -349.108
  H     -532.708     547.741    -348.140
  H     -531.591     550.178    -352.863
  H     -530.648     550.714    -351.493
  H     -532.356     551.074    -351.572

 6  7  8  9  10  11  12  13  14  15  16  26  30  31  32  33  35 0
 6-311+G(2d,p)
 ****
 37  38 0
 6-311+G(2d,p)
 ****
 1  2  3  4  5  17  18  19  20  21  22  23  24  25 0
 3-21G
 ****
 27  28  29  34  36  39  40  41  42  43  44  45  46 0
 3-21G
 ****


