%nproc=1
%NoSave
%Mem=1900MB
#P OB98/GEN NMR

erre ene a

0 1
  C     -912.918    -663.359    -677.163
  O     -912.603    -662.187    -677.889
  H     -913.667    -663.945    -677.708
  H     -912.014    -663.960    -677.052
  H     -913.300    -663.099    -676.172
  P     -913.816    -661.180    -678.197
  C     -913.101    -659.736    -676.153
  O     -914.135    -660.469    -676.796
  C     -913.703    -658.925    -675.005
  O     -914.774    -658.088    -675.492
  C     -914.302    -659.781    -673.897
  O     -913.334    -660.257    -672.981
  C     -915.231    -658.773    -673.248
  O     -914.478    -657.875    -672.414
  C     -915.797    -658.034    -674.465
  N     -920.919    -657.851    -674.306
  C     -919.963    -657.096    -673.701
  N     -918.626    -657.187    -673.822
  C     -918.287    -658.183    -674.651
  C     -919.139    -659.041    -675.331
  C     -920.517    -658.846    -675.128
  N     -921.483    -659.637    -675.712
  N     -918.427    -659.955    -676.081
  C     -917.157    -659.648    -675.861
  N     -917.029    -658.611    -674.979
  O     -915.073    -662.145    -678.407
  O     -913.604    -660.232    -679.333
  H     -915.107    -657.217    -672.066
  H     -915.807    -661.660    -678.821
  H     -920.336    -656.307    -673.059
  H     -916.312    -660.144    -676.304
  H     -915.999    -656.968    -674.251
  H     -915.986    -659.248    -672.598
  H     -914.908    -660.604    -674.309
  H     -912.918    -658.262    -674.604
  H     -912.639    -659.057    -676.880
  H     -922.435    -659.514    -675.390
  H     -921.208    -660.471    -676.208
  H     -912.348    -660.428    -675.773
  P     -913.617    -661.687    -672.292
  C     -912.327    -663.323    -673.849
  O     -913.593    -662.776    -673.473
  O     -915.162    -661.594    -671.904
  O     -912.748    -661.983    -671.106
  H     -915.348    -662.107    -671.092
  H     -912.465    -664.029    -674.641
  H     -911.886    -663.814    -673.007
  H     -911.683    -662.536    -674.181

 6  7  8  9  10  11  12  13  14  15  25  28  32  33  34  35 0
 6-311+G(2d,p)
 ****
 36  39  40 0
 6-311+G(2d,p)
 ****
 1  2  3  4  5  16  17  18  19  20  21  22  23  24 0
 3-21G
 ****
 26  27  29  30  31  37  38  41  42  43  44  45  46  47 0
 3-21G
 ****
 48 0
 3-21G
 ****


