%nproc=1
%NoSave
%Mem=1900MB
#P OB98/GEN NMR

erre ene a

0 1
  C     -253.174    -592.773     656.175
  O     -254.344    -592.307     656.819
  H     -253.007    -593.815     656.472
  H     -252.309    -592.181     656.481
  H     -253.292    -592.733     655.090
  P     -254.779    -590.780     656.608
  C     -257.214    -591.405     656.018
  O     -256.007    -590.785     655.576
  C     -258.060    -591.824     654.812
  O     -258.465    -590.623     654.117
  C     -257.283    -592.715     653.829
  O     -257.949    -593.932     653.520
  C     -256.971    -591.767     652.670
  O     -256.792    -592.403     651.423
  C     -258.139    -590.771     652.718
  N     -257.827    -589.471     652.120
  C     -257.873    -589.385     650.732
  O     -258.177    -590.305     649.977
  N     -257.561    -588.151     650.210
  C     -257.210    -587.045     650.917
  O     -256.943    -585.971     650.390
  C     -257.162    -587.207     652.377
  C     -257.464    -588.395     652.903
  O     -253.677    -589.836     656.263
  O     -255.477    -590.381     657.997
  H     -256.479    -591.726     650.787
  H     -254.863    -589.848     658.532
  H     -257.599    -588.076     649.203
  H     -256.878    -586.352     652.970
  H     -257.434    -588.552     653.979
  H     -259.008    -591.174     652.206
  H     -256.039    -591.242     652.901
  H     -256.337    -593.052     654.271
  H     -258.969    -592.322     655.172
  H     -257.761    -590.679     656.628
  H     -256.972    -592.279     656.627
  P     -257.737    -595.306     654.296
  C     -260.087    -595.304     655.467
  O     -258.672    -595.302     655.599
  O     -256.319    -595.732     654.482
  O     -258.453    -596.393     653.325
  H     -257.942    -597.224     653.424
  H     -260.536    -595.301     656.438
  H     -260.394    -596.180     654.935
  H     -260.396    -594.433     654.928

 6  7  8  9  10  11  12  13  14  15  16  26  31  32  33  34  35 0
 6-311+G(2d,p)
 ****
 36  37 0
 6-311+G(2d,p)
 ****
 1  2  3  4  5  17  18  19  20  21  22  23  24  25 0
 3-21G
 ****
 27  28  29  30  38  39  40  41  42  43  44  45 0
 3-21G
 ****


