%nproc=1
%NoSave
%Mem=1900MB
#P OB98/GEN NMR

erre ene a

0 1
  C     -389.175     -81.542    -122.859
  O     -389.822     -82.226    -123.931
  P     -391.296     -82.793    -123.667
  C     -392.675     -81.116    -125.153
  O     -392.195     -82.438    -124.947
  C     -393.398     -80.997    -126.510
  O     -392.487     -81.414    -127.555
  C     -394.637     -81.872    -126.668
  O     -395.426     -81.364    -127.741
  C     -394.022     -83.198    -127.076
  O     -394.984     -84.062    -127.678
  C     -392.852     -82.754    -127.985
  N     -391.679     -83.644    -127.922
  C     -391.771     -84.917    -128.504
  O     -392.782     -85.335    -129.071
  N     -390.668     -85.722    -128.380
  C     -389.493     -85.380    -127.778
  O     -388.564     -86.167    -127.619
  C     -389.399     -83.994    -127.305
  C     -390.474     -83.209    -127.383
  O     -391.863     -81.845    -122.515
  O     -391.325     -84.238    -123.280
  H     -394.473     -84.759    -128.152
  H     -391.871     -82.315    -121.659
  H     -390.746     -86.662    -128.736
  H     -388.448     -83.662    -126.877
  H     -390.426     -82.182    -127.015
  H     -393.166     -82.705    -129.037
  H     -393.630     -83.715    -126.188
  H     -395.250     -81.970    -125.767
  H     -393.650     -79.936    -126.682
  H     -391.841     -80.406    -125.098
  H     -393.364     -80.847    -124.342
  P     -396.154     -79.950    -127.541
  C     -394.338     -78.251    -128.206
  O     -395.504     -78.946    -128.615
  O     -396.220     -79.439    -126.138
  O     -397.612     -80.204    -128.148
  H     -398.236     -79.521    -127.811
  H     -393.721     -78.043    -129.092
  H     -393.752     -78.830    -127.494
  H     -394.624     -77.298    -127.752
  H     -388.205     -81.221    -123.175
  H     -389.077     -82.202    -122.022
  H     -389.758     -80.691    -122.576

 3  4  5  6  7  8  9  10  11  12  13  23  28  29  30  31  32 0
 6-311+G(2d,p)
 ****
 33  34 0
 6-311+G(2d,p)
 ****
 1  2  14  15  16  17  18  19  20  21  22  24  25  26  27 0
 3-21G
 ****
 35  36  37  38  39  40  41  42  43  44  45 0
 3-21G
 ****


