%nproc=1
%NoSave
%Mem=1900MB
#P OB98/GEN NMR

erre ene a

0 1
  C     -773.057     831.047       8.182
  O     -771.819     831.350       7.552
  P     -770.652     830.268       7.661
  C     -769.399     831.995       9.127
  O     -769.813     830.646       8.975
  C     -768.054     832.068       9.842
  O     -768.091     831.270      11.036
  C     -766.872     831.533       9.021
  O     -766.395     832.493       8.093
  C     -765.858     831.275      10.121
  O     -765.185     832.507      10.459
  C     -766.736     830.812      11.296
  N     -764.830     826.864      13.852
  C     -764.584     828.214      13.984
  N     -763.710     828.567      14.955
  N     -765.109     829.127      13.227
  C     -765.997     828.631      12.333
  C     -766.341     827.321      12.107
  C     -765.687     826.309      12.903
  O     -765.836     825.093      12.785
  N     -767.287     827.219      11.110
  C     -767.541     828.461      10.772
  N     -766.768     829.365      11.467
  O     -769.663     830.675       6.463
  O     -771.097     828.843       7.555
  H     -764.871     832.908       9.633
  H     -769.149     829.889       6.176
  H     -764.410     826.190      14.476
  H     -768.281     828.754      10.025
  H     -766.419     831.257      12.243
  H     -765.077     830.574       9.828
  H     -763.351     827.919      15.645
  H     -767.139     830.584       8.538
  H     -763.517     829.550      15.097
  H     -767.875     833.119      10.143
  H     -770.142     832.548       9.720
  H     -769.334     832.465       8.138
  P     -765.858     831.935       6.685
  C     -763.312     832.222       7.122
  O     -764.401     831.332       7.008
  O     -765.560     833.262       5.847
  O     -766.815     831.012       5.991
  H     -765.615     833.078       4.904
  H     -763.609     833.167       7.585
  H     -762.899     832.420       6.127
  H     -762.532     831.752       7.741
  H     -773.742     831.855       8.029
  H     -772.899     830.907       9.231
  H     -773.462     830.151       7.760

 3  4  5  6  7  8  9  10  11  12  23  26  30  31  33  0
 6-311+G(2d,p)
 ****
 35  36  37  38 0
 6-311+G(2d,p)
 ****
 1  2  13  14  15  16  17  18  19  20  21  22  24  25  27  28  29 0
 3-21G
 ****
 32  34  39  40  41  42  43  44  45  46  47  48  49 0
 3-21G
 ****


