%nproc=1
%NoSave
%Mem=1900MB
#P OB98/GEN NMR

erre ene a

0 1
  C      -67.287    -914.578    -216.420
  O      -67.445    -914.153    -217.783
  P      -66.115    -913.860    -218.632
  C      -65.998    -911.404    -217.751
  O      -66.020    -912.275    -218.881
  C      -65.589    -909.992    -218.173
  O      -64.221    -909.932    -218.611
  C      -66.403    -909.431    -219.329
  O      -67.648    -908.905    -218.883
  C      -65.505    -908.316    -219.819
  O      -65.650    -907.154    -218.974
  C      -64.107    -908.931    -219.644
  N      -62.258    -908.058    -224.338
  C      -62.732    -907.219    -223.387
  N      -63.224    -907.524    -222.167
  C      -63.176    -908.859    -221.963
  C      -62.724    -909.826    -222.839
  C      -62.244    -909.380    -224.079
  N      -61.754    -910.237    -225.047
  N      -62.838    -911.083    -222.281
  C      -63.346    -910.872    -221.085
  N      -63.577    -909.539    -220.850
  O      -66.482    -914.430    -220.082
  O      -64.889    -914.504    -218.074
  H      -66.584    -906.885    -219.020
  H      -65.674    -914.803    -220.497
  H      -62.720    -906.163    -223.642
  H      -63.565    -911.640    -220.355
  H      -63.375    -908.193    -219.302
  H      -65.744    -907.994    -220.838
  H      -66.544    -910.184    -220.119
  H      -65.689    -909.332    -217.302
  H      -65.313    -911.783    -216.998
  H      -61.401    -909.840    -225.901
  H      -61.717    -911.227    -224.847
  H      -66.991    -911.402    -217.286
  P      -68.885    -909.929    -218.762
  C      -69.782    -909.243    -221.104
  O      -70.031    -909.327    -219.708
  O      -69.423    -909.657    -217.279
  O      -68.518    -911.356    -218.983
  H      -69.822    -910.477    -216.911
  H      -70.744    -909.117    -221.616
  H      -69.314    -910.154    -221.471
  H      -69.154    -908.380    -221.317
  H      -68.250    -914.735    -215.981
  H      -66.763    -913.825    -215.870
  H      -66.730    -915.491    -216.393

 3  4  5  6  7  8  9  10  11  12  22  25  29  30  31  32 0
 6-311+G(2d,p)
 ****
 33  36  37 0
 6-311+G(2d,p)
 ****
 1  2  13  14  15  16  17  18  19  20  21  23  24  26 0
 3-21G
 ****
 27  28  34  35  38  39  40  41  42  43  44  45  46  47  48 0
 3-21G
 ****


