%nproc=1
%NoSave
%Mem=1900MB
#P OB98/GEN NMR

erre ene a

0 1
  C      -51.596     193.949    -329.821
  O      -52.187     193.484    -328.622
  H      -52.390     194.309    -330.482
  H      -51.059     193.139    -330.320
  H      -50.915     194.776    -329.607
  P      -51.191     192.876    -327.520
  C      -52.147     194.301    -325.584
  O      -51.036     194.046    -326.433
  C      -52.516     195.785    -325.624
  O      -52.915     196.161    -326.953
  C      -53.672     196.168    -324.707
  O      -53.205     196.383    -323.383
  C      -54.134     197.467    -325.350
  O      -53.281     198.552    -324.926
  C      -53.927     197.198    -326.851
  N      -57.522     198.547    -330.261
  C      -56.578     199.267    -329.619
  N      -55.699     198.855    -328.683
  C      -55.841     197.545    -328.435
  C      -56.757     196.679    -329.015
  C      -57.626     197.225    -329.972
  N      -58.592     196.488    -330.626
  N      -56.615     195.403    -328.509
  C      -55.587     195.484    -327.687
  N      -55.108     196.766    -327.580
  O      -49.919     192.293    -328.048
  O      -52.157     191.838    -326.775
  H      -53.440     198.675    -323.969
  H      -53.046     192.221    -326.658
  H      -56.529     200.324    -329.889
  H      -55.140     194.648    -327.165
  H      -53.545     198.084    -327.374
  H      -55.150     197.735    -325.069
  H      -54.487     195.435    -324.745
  H      -51.615     196.365    -325.378
  H      -51.908     194.008    -324.553
  H      -59.287     196.994    -331.148
  H      -58.749     195.539    -330.314
  H      -52.982     193.690    -325.935
  P      -53.733     195.484    -322.163
  C      -51.429     195.631    -321.024
  O      -52.427     194.770    -321.572
  O      -54.871     194.580    -322.504
  O      -54.102     196.546    -321.024
  H      -54.676     196.128    -320.349
  H      -50.610     195.044    -320.663
  H      -51.848     196.194    -320.216
  H      -51.081     196.301    -321.782

 6  7  8  9  10  11  12  13  14  15  25  28  32  33  34  35 0
 6-311+G(2d,p)
 ****
 36  39  40 0
 6-311+G(2d,p)
 ****
 1  2  3  4  5  16  17  18  19  20  21  22  23  24 0
 3-21G
 ****
 26  27  29  30  31  37  38  41  42  43  44  45  46  47 0
 3-21G
 ****
 48 0
 3-21G
 ****


