%nproc=1
%NoSave
%Mem=1900MB
#P OB98/GEN NMR

erre ene a

0 1
  C      514.452       8.784     547.650
  O      515.778       8.380     547.364
  H      514.482       9.605     548.370
  H      513.888       7.954     548.080
  H      513.965       9.132     546.733
  P      515.946       7.103     546.402
  C      516.964       5.430     548.123
  O      515.814       5.854     547.408
  C      516.916       3.914     548.338
  O      515.690       3.533     549.000
  C      516.947       3.093     547.048
  O      518.238       2.996     546.476
  C      516.454       1.763     547.576
  O      517.510       1.120     548.325
  C      515.310       2.221     548.512
  N      514.014       2.279     547.831
  C      513.079       1.303     548.192
  O      513.346       0.442     549.025
  N      511.854       1.298     547.561
  C      511.578       2.200     546.669
  N      510.357       2.146     546.077
  C      512.531       3.256     546.274
  C      513.710       3.235     546.887
  O      517.508       7.108     546.053
  O      515.046       7.052     545.216
  H      517.820       1.770     548.986
  H      517.752       6.271     545.580
  H      512.264       3.977     545.517
  H      514.462       3.981     546.649
  H      515.221       1.558     549.378
  H      516.155       1.070     546.792
  H      516.225       3.472     546.314
  H      517.747       3.646     549.003
  H      509.748       1.372     546.326
  H      516.978       5.945     549.093
  H      510.109       2.705     545.272
  H      517.873       5.686     547.568
  P      518.467       3.693     545.049
  C      517.079       1.919     543.740
  O      517.228       3.283     544.126
  O      519.684       2.856     544.424
  O      518.765       5.159     545.108
  H      520.257       3.430     543.882
  H      516.207       1.814     543.129
  H      516.977       1.310     544.614
  H      517.941       1.608     543.187

 6  7  8  9  10  11  12  13  14  15  16  26  30  31  32  33  35 0
 6-311+G(2d,p)
 ****
 37  38 0
 6-311+G(2d,p)
 ****
 1  2  3  4  5  17  18  19  20  21  22  23  24  25 0
 3-21G
 ****
 27  28  29  34  36  39  40  41  42  43  44  45  46 0
 3-21G
 ****


