%nproc=1
%NoSave
%Mem=1900MB
#P OB98/GEN NMR

erre ene a

0 1
  C      401.943      25.217    -146.283
  O      401.263      25.016    -145.062
  H      402.687      26.004    -146.146
  H      401.239      25.533    -147.056
  H      402.458      24.304    -146.599
  P      400.243      23.788    -144.936
  C      400.559      24.501    -142.474
  O      399.923      23.609    -143.377
  C      399.560      25.521    -141.922
  O      399.248      26.485    -142.975
  C      398.222      24.910    -141.457
  O      397.728      25.738    -140.395
  C      397.385      25.066    -142.715
  O      396.018      24.828    -142.489
  C      397.811      26.482    -143.127
  N      397.431      26.883    -144.476
  C      396.075      27.014    -144.754
  O      395.172      26.822    -143.942
  N      395.765      27.386    -146.038
  C      396.657      27.645    -147.036
  O      396.321      28.004    -148.158
  C      398.078      27.482    -146.683
  C      398.393      27.119    -145.437
  O      400.642      22.537    -145.648
  O      398.870      24.379    -145.514
  H      398.733      24.061    -146.425
  H      395.712      25.401    -141.753
  H      394.788      27.489    -146.256
  H      398.811      27.670    -147.453
  H      399.432      27.000    -145.144
  H      397.413      27.212    -142.409
  H      397.698      24.331    -143.463
  H      398.321      23.881    -141.101
  H      400.039      26.085    -141.112
  H      401.357      25.021    -143.016
  H      401.004      23.928    -141.653
  P      398.285      25.675    -138.892
  C      397.767      28.210    -138.786
  O      397.742      26.962    -138.103
  O      399.766      25.499    -138.804
  O      397.515      24.448    -138.208
  H      398.060      24.087    -137.480
  H      397.379      28.975    -138.146
  H      397.166      28.145    -139.669
  H      398.774      28.448    -139.057

 6  7  8  9  10  11  12  13  14  15  16  27  31  32  33  34  35 0
 6-311+G(2d,p)
 ****
 36  37 0
 6-311+G(2d,p)
 ****
 1  2  3  4  5  17  18  19  20  21  22  23  24  25 0
 3-21G
 ****
 26  28  29  30  38  39  40  41  42  43  44  45 0
 3-21G
 ****


