%nproc=1
%NoSave
%Mem=1900MB
#P OB98/GEN NMR

erre ene a

0 1
  C      153.219    -266.961    -433.094
  O      154.618    -266.913    -433.301
  P      155.574    -267.947    -432.543
  C      157.156    -266.295    -431.376
  O      156.105    -267.238    -431.207
  C      157.237    -265.369    -430.164
  O      156.080    -264.510    -430.108
  C      157.274    -266.099    -428.827
  O      158.552    -266.648    -428.586
  C      156.863    -264.982    -427.874
  O      157.993    -264.150    -427.553
  C      155.843    -264.205    -428.715
  N      151.252    -262.202    -427.755
  C      152.466    -261.636    -427.917
  N      153.652    -262.241    -428.131
  C      153.501    -263.576    -428.149
  C      152.335    -264.300    -427.964
  C      151.159    -263.554    -427.782
  N      149.906    -264.119    -427.679
  N      152.596    -265.655    -428.019
  C      153.894    -265.745    -428.224
  N      154.471    -264.516    -428.374
  O      156.630    -268.578    -433.386
  O      154.563    -269.058    -431.984
  H      158.608    -264.688    -427.022
  H      154.791    -269.925    -432.366
  H      152.486    -260.550    -427.876
  H      154.454    -266.669    -428.288
  H      155.969    -263.120    -428.605
  H      156.464    -265.362    -426.927
  H      156.506    -266.882    -428.811
  H      158.126    -264.732    -430.280
  H      156.953    -265.710    -432.278
  H      149.119    -263.491    -427.695
  H      149.784    -265.078    -427.997
  H      158.102    -266.829    -431.510
  P      158.732    -267.791    -427.478
  C      160.373    -266.527    -425.969
  O      159.070    -267.054    -426.095
  O      159.649    -268.911    -427.849
  O      157.237    -268.321    -427.243
  H      157.260    -269.271    -427.017
  H      161.078    -267.333    -425.749
  H      160.385    -265.809    -425.148
  H      160.677    -266.016    -426.890
  H      152.746    -266.200    -433.679
  H      153.006    -266.799    -432.058
  H      152.848    -267.920    -433.388

 3  4  5  6  7  8  9  10  11  12  22  25  29  30  31  32 0
 6-311+G(2d,p)
 ****
 33  36  37 0
 6-311+G(2d,p)
 ****
 1  2  13  14  15  16  17  18  19  20  21  23  24  26 0
 3-21G
 ****
 27  28  34  35  38  39  40  41  42  43  44  45  46  47  48 0
 3-21G
 ****


