%nproc=1
%NoSave
%Mem=1900MB
#P OB98/GEN NMR

erre ene a

0 1
  C     -219.042     562.259     -84.208
  O     -220.271     561.537     -84.080
  P     -221.587     562.252     -84.655
  C     -222.421     562.719     -87.071
  O     -221.766     561.819     -86.186
  C     -222.470     562.132     -88.479
  O     -221.147     561.817     -88.977
  C     -223.251     560.825     -88.570
  O     -224.647     561.064     -88.509
  C     -222.758     560.281     -89.906
  O     -223.434     560.935     -90.992
  C     -221.275     560.702     -89.896
  N     -219.690     555.951     -90.948
  C     -220.607     556.752     -91.542
  N     -220.976     558.004     -91.200
  C     -220.280     558.427     -90.131
  C     -219.313     557.725     -89.420
  C     -219.026     556.427     -89.866
  N     -218.105     555.608     -89.254
  N     -218.823     558.489     -88.378
  C     -219.498     559.621     -88.445
  N     -220.380     559.635     -89.488
  O     -221.164     563.793     -84.738
  O     -222.797     562.056     -83.797
  H     -224.392     560.761     -90.891
  H     -221.627     564.303     -84.046
  H     -221.115     556.329     -92.402
  H     -219.383     560.453     -87.754
  H     -220.937     561.055     -90.880
  H     -222.917     559.207     -90.020
  H     -222.950     560.147     -87.757
  H     -222.923     562.880     -89.148
  H     -221.903     563.680     -87.085
  H     -218.018     554.660     -89.588
  H     -217.666     555.918     -88.398
  H     -223.430     562.912     -86.690
  P     -225.353     560.997     -87.067
  C     -225.934     562.834     -85.361
  O     -225.111     562.470     -86.463
  O     -224.317     560.105     -86.244
  O     -226.768     560.526     -87.082
  H     -223.399     560.385     -86.390
  H     -225.641     563.834     -85.029
  H     -225.795     562.129     -84.539
  H     -226.980     562.851     -85.673
  H     -218.244     561.681     -83.790
  H     -219.119     563.190     -83.686
  H     -218.844     562.445     -85.243

 3  4  5  6  7  8  9  10  11  12  22  25  29  30  31  32 0
 6-311+G(2d,p)
 ****
 33  36  37 0
 6-311+G(2d,p)
 ****
 1  2  13  14  15  16  17  18  19  20  21  23  24  26 0
 3-21G
 ****
 27  28  34  35  38  39  40  41  42  43  44  45  46  47  48 0
 3-21G
 ****


