%nproc=1
%NoSave
%Mem=1900MB
#P OB98/GEN NMR

erre ene a

0 1
  C       73.632    -538.671     487.549
  O       72.328    -538.671     486.996
  P       71.627    -537.292     486.592
  C       69.461    -536.114     487.445
  O       70.558    -536.953     487.741
  C       68.218    -536.529     488.241
  O       67.736    -537.772     487.692
  C       68.463    -536.780     489.723
  O       67.205    -536.740     490.406
  C       68.982    -538.206     489.708
  O       68.859    -538.840     490.980
  C       68.158    -538.850     488.562
  N       68.956    -539.834     487.807
  C       68.983    -541.138     488.303
  O       68.319    -541.495     489.274
  N       69.858    -541.991     487.694
  C       70.726    -541.644     486.694
  O       71.710    -542.317     486.374
  C       70.491    -540.335     486.062
  C       69.641    -539.485     486.658
  O       70.718    -537.709     485.343
  O       72.565    -536.186     486.256
  H       69.365    -539.683     490.935
  H       71.189    -537.505     484.506
  H       69.985    -542.888     488.142
  H       71.051    -540.089     485.174
  H       69.482    -538.502     486.243
  H       67.266    -539.366     488.953
  H       70.043    -538.196     489.443
  H       69.173    -536.096     490.189
  H       67.434    -535.765     488.098
  H       69.263    -536.145     486.369
  H       69.714    -535.078     487.679
  P       67.230    -536.791     492.007
  C       66.109    -538.343     493.730
  O       66.644    -538.225     492.424
  O       66.617    -535.621     492.707
  O       68.787    -536.934     492.351
  H       68.950    -536.678     493.278
  H       65.327    -539.107     493.722
  H       65.679    -537.393     494.069
  H       66.897    -538.645     494.417
  H       73.932    -539.677     487.754
  H       73.634    -538.106     488.458
  H       74.315    -538.230     486.853

 3  4  5  6  7  8  9  10  11  12  13  23  28  29  30  31  32 0
 6-311+G(2d,p)
 ****
 33  34 0
 6-311+G(2d,p)
 ****
 1  2  14  15  16  17  18  19  20  21  22  24  25  26  27 0
 3-21G
 ****
 35  36  37  38  39  40  41  42  43  44  45 0
 3-21G
 ****


