%nproc=1
%NoSave
%Mem=1900MB
#P OB98/GEN NMR

erre ene a

0 1
  C      164.633    -207.142     -33.521
  O      163.513    -207.180     -34.380
  H      164.288    -206.922     -32.507
  H      165.320    -206.351     -33.834
  H      165.152    -208.104     -33.512
  P      163.717    -207.663     -35.894
  C      163.522    -205.273     -36.849
  O      164.340    -206.423     -36.696
  C      164.301    -204.138     -37.526
  O      164.799    -204.620     -38.812
  C      163.460    -202.877     -37.811
  O      164.355    -201.756     -37.752
  C      163.007    -203.150     -39.233
  O      162.437    -202.023     -39.846
  C      164.319    -203.696     -39.813
  N      164.205    -204.355     -41.108
  C      163.807    -203.581     -42.194
  O      163.549    -202.380     -42.141
  N      163.704    -204.244     -43.390
  C      163.967    -205.565     -43.601
  O      163.887    -206.098     -44.701
  C      164.375    -206.331     -42.414
  C      164.480    -205.701     -41.243
  O      162.532    -208.302     -36.537
  O      164.954    -208.679     -35.801
  H      164.626    -209.597     -35.827
  H      163.127    -201.334     -39.953
  H      163.421    -203.699     -44.188
  H      164.581    -207.385     -42.546
  H      164.789    -206.237     -40.351
  H      165.058    -202.891     -39.885
  H      162.229    -203.919     -39.235
  H      162.648    -202.732     -37.095
  H      165.179    -203.899     -36.915
  H      163.193    -204.952     -35.854
  H      162.643    -205.534     -37.448
  P      164.463    -200.776     -36.486
  C      163.513    -198.808     -37.873
  O      163.405    -199.584     -36.687
  O      165.851    -200.305     -36.202
  O      163.874    -201.611     -35.253
  H      164.266    -201.286     -34.421
  H      162.752    -198.055     -37.877
  H      163.392    -199.442     -38.726
  H      164.476    -198.342     -37.908

 6  7  8  9  10  11  12  13  14  15  16  27  31  32  33  34  35 0
 6-311+G(2d,p)
 ****
 36  37 0
 6-311+G(2d,p)
 ****
 1  2  3  4  5  17  18  19  20  21  22  23  24  25 0
 3-21G
 ****
 26  28  29  30  38  39  40  41  42  43  44  45 0
 3-21G
 ****


