%nproc=1
%NoSave
%Mem=1900MB
#P OB98/GEN NMR

erre ene a

0 1
  C     -275.827     372.778     422.255
  O     -276.982     373.552     422.022
  P     -278.037     373.849     423.188
  C     -277.513     376.251     423.960
  O     -277.319     374.862     424.212
  C     -278.335     376.888     425.088
  O     -279.634     376.216     425.152
  C     -277.664     376.759     426.468
  O     -277.531     377.992     427.182
  C     -278.509     375.696     427.156
  O     -278.413     375.712     428.566
  C     -279.888     375.959     426.550
  N     -280.809     374.845     426.754
  C     -281.097     374.488     428.070
  O     -280.635     375.054     429.062
  N     -281.904     373.400     428.233
  C     -282.345     372.579     427.242
  O     -282.985     371.560     427.471
  C     -281.985     372.980     425.875
  C     -281.266     374.087     425.694
  O     -278.631     372.646     423.837
  O     -279.107     374.800     422.473
  H     -278.645     376.605     428.878
  H     -278.746     375.633     422.120
  H     -282.118     373.132     429.182
  H     -282.313     372.343     425.069
  H     -280.983     374.414     424.697
  H     -280.338     376.859     426.965
  H     -278.144     374.717     426.821
  H     -276.629     376.394     426.372
  H     -278.502     377.937     424.824
  H     -278.045     376.371     423.018
  H     -276.540     376.748     423.856
  P     -276.361     378.327     428.224
  C     -274.520     379.178     426.603
  O     -274.960     378.168     427.477
  O     -276.461     377.623     429.537
  O     -276.484     379.911     428.421
  H     -276.177     380.151     429.311
  H     -273.877     378.737     425.833
  H     -273.933     379.910     427.165
  H     -275.360     379.682     426.115
  H     -275.261     372.701     421.350
  H     -276.113     371.800     422.581
  H     -275.231     373.245     423.011

 3  4  5  6  7  8  9  10  11  12  13  23  28  29  30  31  32 0
 6-311+G(2d,p)
 ****
 33  34 0
 6-311+G(2d,p)
 ****
 1  2  14  15  16  17  18  19  20  21  22  24  25  26  27 0
 3-21G
 ****
 35  36  37  38  39  40  41  42  43  44  45 0
 3-21G
 ****


