%nproc=1
%NoSave
%Mem=1900MB
#P OB98/GEN NMR

erre ene a

0 1
  C       83.228      54.623     -81.813
  O       82.650      54.447     -83.091
  H       82.991      53.751     -81.195
  H       82.812      55.513     -81.334
  H       84.316      54.715     -81.884
  P       83.065      55.445     -84.276
  C       81.405      57.393     -83.944
  O       82.736      56.931     -83.761
  C       81.397      58.769     -84.620
  O       82.089      59.718     -83.749
  C       82.112      58.800     -85.990
  O       81.442      59.779     -86.795
  C       83.495      59.279     -85.586
  O       84.249      59.695     -86.693
  C       83.113      60.342     -84.551
  N       84.237      60.786     -83.732
  C       85.145      61.668     -84.314
  O       85.041      62.101     -85.459
  N       86.206      62.033     -83.526
  C       86.444      61.613     -82.249
  O       87.400      61.992     -81.581
  C       85.464      60.660     -81.698
  C       84.421      60.295     -82.451
  O       82.526      55.110     -85.626
  O       84.668      55.409     -84.254
  H       84.990      54.789     -84.938
  H       84.623      58.921     -87.164
  H       86.874      62.672     -83.933
  H       85.632      60.289     -80.696
  H       83.678      59.595     -82.081
  H       82.657      61.210     -85.037
  H       84.054      58.462     -85.113
  H       82.098      57.831     -86.499
  H       80.359      59.115     -84.706
  H       80.927      57.459     -82.960
  H       80.853      56.671     -84.560
  P       80.165      59.442     -87.714
  C       81.674      59.137     -89.783
  O       80.637      58.584     -88.986
  O       79.356      60.647     -88.080
  O       79.283      58.411     -86.858
  H       78.336      58.585     -87.023
  H       81.894      58.473     -90.593
  H       82.550      59.272     -89.184
  H       81.359      60.082     -90.173

 6  7  8  9  10  11  12  13  14  15  16  27  31  32  33  34  35 0
 6-311+G(2d,p)
 ****
 36  37 0
 6-311+G(2d,p)
 ****
 1  2  3  4  5  17  18  19  20  21  22  23  24  25 0
 3-21G
 ****
 26  28  29  30  38  39  40  41  42  43  44  45 0
 3-21G
 ****


