%nproc=1
%NoSave
%Mem=1900MB
#P OB98/GEN NMR

erre ene a

0 1
  C      504.425    -628.554      40.432
  O      505.755    -628.086      40.301
  P      506.203    -627.431      38.893
  C      506.826    -625.014      39.678
  O      505.879    -625.861      39.036
  C      506.673    -623.561      39.179
  O      507.077    -623.488      37.777
  C      505.249    -622.994      39.299
  O      505.390    -621.597      39.664
  C      504.719    -623.137      37.884
  O      503.642    -622.221      37.641
  C      505.985    -622.835      37.073
  N      505.906    -623.311      35.696
  C      506.244    -622.395      34.704
  O      506.535    -621.212      34.937
  N      506.204    -622.870      33.414
  C      505.781    -624.105      33.019
  O      505.758    -624.495      31.865
  C      505.315    -624.998      34.112
  C      505.393    -624.549      35.367
  O      505.038    -627.981      37.947
  O      507.592    -627.779      38.498
  H      504.161    -628.033      38.372
  H      503.314    -622.354      36.718
  H      506.485    -622.237      32.688
  H      504.907    -625.953      33.845
  H      505.034    -625.167      36.197
  H      506.202    -621.758      37.057
  H      504.362    -624.159      37.710
  H      504.650    -623.518      40.044
  H      507.365    -622.935      39.769
  H      507.854    -625.346      39.468
  H      506.673    -625.082      40.770
  P      504.676    -621.093      41.003
  C      506.569    -619.402      41.689
  O      505.826    -620.569      42.003
  O      504.248    -622.496      41.654
  O      503.513    -620.182      40.787
  H      504.959    -623.146      41.652
  H      507.108    -619.096      42.598
  H      505.895    -618.590      41.409
  H      507.267    -619.602      40.891
  H      504.284    -628.957      41.413
  H      504.242    -629.316      39.704
  H      503.745    -627.743      40.278

 3  4  5  6  7  8  9  10  11  12  13  24  28  29  30  31  32 0
 6-311+G(2d,p)
 ****
 33  34 0
 6-311+G(2d,p)
 ****
 1  2  14  15  16  17  18  19  20  21  22  23  25  26  27 0
 3-21G
 ****
 35  36  37  38  39  40  41  42  43  44  45 0
 3-21G
 ****


