%nproc=1
%NoSave
%Mem=1900MB
#P OB98/GEN NMR

erre ene a

0 1
  C      543.509    -347.434     -81.678
  O      542.636    -348.424     -82.185
  H      543.822    -346.789     -82.505
  H      544.396    -347.904     -81.245
  H      543.002    -346.824     -80.924
  P      541.918    -349.372     -81.103
  C      543.254    -351.530     -81.782
  O      542.963    -350.550     -80.800
  C      544.143    -352.631     -81.197
  O      545.527    -352.193     -81.269
  C      543.832    -352.967     -79.737
  O      544.031    -354.367     -79.543
  C      544.895    -352.194     -78.968
  O      545.128    -352.751     -77.675
  C      546.084    -352.271     -79.936
  N      547.063    -351.215     -79.699
  C      547.901    -351.373     -78.595
  O      547.785    -352.354     -77.859
  N      548.825    -350.394     -78.310
  C      548.858    -349.318     -79.032
  N      549.778    -348.373     -78.689
  C      547.970    -349.090     -80.187
  C      547.110    -350.075     -80.464
  O      540.790    -350.081     -81.990
  O      541.401    -348.655     -79.904
  H      545.632    -352.101     -77.141
  H      541.113    -350.388     -82.855
  H      548.027    -348.171     -80.757
  H      546.419    -349.994     -81.300
  H      546.592    -353.241     -79.848
  H      544.579    -351.153     -78.833
  H      542.816    -352.696     -79.447
  H      544.058    -353.520     -81.834
  H      550.354    -348.563     -77.877
  H      543.756    -351.072     -82.636
  H      549.859    -347.479     -79.146
  H      542.307    -351.952     -82.129
  P      542.784    -355.295     -79.165
  C      543.032    -355.206     -76.593
  O      542.229    -354.882     -77.721
  O      542.982    -356.762     -79.376
  O      541.634    -354.748     -80.150
  H      541.138    -355.524     -80.488
  H      542.544    -354.875     -75.700
  H      543.982    -354.722     -76.681
  H      543.175    -356.266     -76.549

 6  7  8  9  10  11  12  13  14  15  16  26  30  31  32  33  35 0
 6-311+G(2d,p)
 ****
 37  38 0
 6-311+G(2d,p)
 ****
 1  2  3  4  5  17  18  19  20  21  22  23  24  25 0
 3-21G
 ****
 27  28  29  34  36  39  40  41  42  43  44  45  46 0
 3-21G
 ****


