%nproc=1
%NoSave
%Mem=1900MB
#P OB98/GEN NMR

erre ene a

0 1
  C      192.926    -712.341    -487.876
  O      192.607    -712.927    -489.120
  P      191.133    -713.586    -489.257
  C      191.839    -715.896    -488.247
  O      191.044    -714.720    -488.121
  C      191.003    -717.116    -487.866
  O      190.690    -717.099    -486.460
  C      189.676    -717.213    -488.602
  O      189.851    -717.764    -489.886
  C      188.875    -718.109    -487.654
  O      189.202    -719.499    -487.862
  C      189.341    -717.621    -486.285
  N      185.771    -716.741    -482.802
  C      186.290    -717.939    -483.256
  N      185.822    -719.060    -482.664
  N      187.184    -718.031    -484.203
  C      187.563    -716.818    -484.714
  C      187.105    -715.584    -484.352
  C      186.151    -715.483    -483.271
  O      185.729    -714.454    -482.757
  N      187.691    -714.589    -485.105
  C      188.531    -715.243    -485.892
  N      188.501    -716.604    -485.683
  O      191.233    -714.410    -490.633
  O      189.991    -712.610    -489.247
  H      188.830    -720.019    -487.123
  H      190.832    -713.899    -491.362
  H      185.091    -716.740    -482.062
  H      189.191    -714.773    -486.607
  H      189.409    -718.440    -485.554
  H      187.795    -718.013    -487.819
  H      185.113    -719.076    -481.957
  H      189.199    -716.220    -488.665
  H      186.192    -719.960    -483.003
  H      191.614    -718.019    -488.069
  H      192.702    -715.816    -487.571
  H      192.214    -715.985    -489.270
  P      188.656    -717.572    -490.955
  C      188.197    -719.952    -491.871
  O      187.818    -718.934    -490.968
  O      189.420    -717.561    -492.362
  O      187.864    -716.321    -490.753
  H      188.979    -716.938    -492.967
  H      187.943    -720.924    -491.431
  H      189.282    -719.943    -492.061
  H      187.663    -719.825    -492.810
  H      193.919    -711.944    -487.913
  H      192.866    -713.082    -487.107
  H      192.234    -711.552    -487.665

 3  4  5  6  7  8  9  10  11  12  23  26  30  31 0
 6-311+G(2d,p)
 ****
 33  35  36  37  38 0
 6-311+G(2d,p)
 ****
 1  2  13  14  15  16  17  18  19  20  21  22  24  25 0
 3-21G
 ****
 27  28  29  32  34  39  40  41  42  43  44  45  46  47  48  49 0
 3-21G
 ****


