%nproc=1
%NoSave
%Mem=1900MB
#P OB98/GEN NMR

erre ene a

0 1
  C     -276.718     124.016    -642.398
  O     -277.177     125.305    -642.762
  P     -277.790     125.493    -644.233
  C     -280.228     125.309    -643.337
  O     -279.237     124.793    -644.217
  C     -281.431     125.803    -644.137
  O     -281.068     126.940    -644.953
  C     -282.009     124.779    -645.104
  O     -282.860     123.852    -644.453
  C     -282.803     125.677    -646.033
  O     -284.068     126.013    -645.431
  C     -281.908     126.919    -646.133
  N     -280.997     129.182    -650.568
  C     -281.809     129.583    -649.521
  N     -282.524     130.714    -649.710
  N     -281.911     128.933    -648.392
  C     -281.142     127.806    -648.353
  C     -280.297     127.316    -649.318
  C     -280.210     128.044    -650.562
  O     -279.551     127.717    -651.551
  N     -279.682     126.169    -648.907
  C     -280.149     125.960    -647.693
  N     -281.072     126.908    -647.322
  O     -276.908     124.498    -645.126
  O     -277.756     126.896    -644.756
  H     -284.555     125.176    -645.308
  H     -277.005     124.720    -646.073
  H     -280.964     129.712    -651.419
  H     -279.863     125.136    -647.050
  H     -282.492     127.840    -646.135
  H     -283.025     125.200    -646.993
  H     -282.544     131.224    -650.580
  H     -281.214     124.281    -645.662
  H     -283.174     130.989    -648.984
  H     -282.196     126.136    -643.420
  H     -279.804     126.132    -642.762
  H     -280.532     124.521    -642.640
  P     -283.211     122.511    -645.258
  C     -281.736     120.647    -644.197
  O     -281.868     121.624    -645.217
  O     -283.289     123.003    -646.780
  O     -284.468     121.834    -644.820
  H     -283.874     122.424    -647.296
  H     -280.916     119.974    -644.467
  H     -282.658     120.060    -644.094
  H     -281.494     121.133    -643.253
  H     -276.339     124.042    -641.398
  H     -275.940     123.713    -643.067
  H     -277.528     123.320    -642.455

 3  4  5  6  7  8  9  10  11  12  23  26  30  31 0
 6-311+G(2d,p)
 ****
 33  35  36  37  38 0
 6-311+G(2d,p)
 ****
 1  2  13  14  15  16  17  18  19  20  21  22  24  25 0
 3-21G
 ****
 27  28  29  32  34  39  40  41  42  43  44  45  46  47  48  49 0
 3-21G
 ****


