%nproc=1
%NoSave
%Mem=1900MB
#P OB98/GEN NMR

erre ene a

0 1
  C       18.651    -119.751      63.811
  O       19.068    -120.107      65.119
  P       18.442    -119.380      66.403
  C       20.187    -117.501      66.221
  O       19.620    -118.505      67.054
  C       21.628    -117.206      66.636
  O       22.174    -116.204      65.745
  C       21.751    -116.671      68.057
  O       22.955    -117.181      68.640
  C       21.905    -115.171      67.883
  O       22.608    -114.586      68.993
  C       22.640    -115.097      66.539
  N       23.658    -110.076      66.214
  C       24.129    -111.035      67.038
  N       23.797    -112.344      67.086
  C       22.913    -112.641      66.119
  C       22.344    -111.768      65.202
  C       22.749    -110.426      65.275
  N       22.273    -109.450      64.425
  N       21.452    -112.435      64.383
  C       21.499    -113.686      64.786
  N       22.376    -113.863      65.826
  O       17.739    -120.281      67.359
  O       17.461    -118.271      65.800
  H       23.549    -114.844      68.906
  H       16.654    -118.199      66.344
  H       24.874    -110.708      67.760
  H       20.917    -114.494      64.373
  H       23.724    -115.200      66.666
  H       20.914    -114.704      67.827
  H       20.894    -116.931      68.687
  H       22.223    -118.119      66.509
  H       19.590    -116.591      66.323
  H       22.709    -108.543      64.470
  H       21.734    -109.741      63.619
  H       20.145    -117.828      65.176
  P       22.775    -118.032      69.996
  C       23.258    -116.178      71.759
  O       23.728    -117.309      71.062
  O       22.985    -119.493      69.774
  O       21.283    -117.626      70.421
  H       21.030    -116.750      70.051
  H       24.059    -115.806      72.404
  H       22.405    -116.449      72.387
  H       22.970    -115.387      71.060
  H       19.180    -120.344      63.094
  H       18.858    -118.715      63.640
  H       17.600    -119.925      63.712

 3  4  5  6  7  8  9  10  11  12  22  25  29  30  31  32 0
 6-311+G(2d,p)
 ****
 33  36  37 0
 6-311+G(2d,p)
 ****
 1  2  13  14  15  16  17  18  19  20  21  23  24  26 0
 3-21G
 ****
 27  28  34  35  38  39  40  41  42  43  44  45  46  47  48 0
 3-21G
 ****


