%nproc=1
%NoSave
%Mem=1900MB
#P OB98/GEN NMR

erre ene a

0 1
  C      459.606    -939.584     263.625
  O      459.999    -938.879     262.457
  H      460.507    -939.813     264.203
  H      459.120    -940.528     263.356
  H      458.941    -938.974     264.237
  P      458.858    -938.428     261.423
  C      457.170    -939.749     259.955
  O      458.288    -939.816     260.836
  C      457.243    -940.875     258.930
  O      456.995    -942.160     259.539
  C      456.219    -940.776     257.800
  O      456.510    -939.767     256.855
  C      456.348    -942.177     257.224
  O      457.554    -942.272     256.442
  C      456.435    -943.022     258.504
  N      455.143    -943.555     258.934
  C      455.016    -944.954     258.963
  O      455.959    -945.672     258.637
  N      453.806    -945.506     259.333
  C      452.810    -944.732     259.621
  N      451.633    -945.328     259.969
  C      452.891    -943.254     259.578
  C      454.076    -942.741     259.231
  O      459.264    -937.413     260.399
  O      457.643    -937.950     262.354
  H      457.633    -943.202     256.150
  H      456.910    -937.650     261.754
  H      452.019    -942.651     259.805
  H      454.203    -941.671     259.182
  H      457.140    -943.861     258.374
  H      455.518    -942.445     256.568
  H      455.205    -940.657     258.207
  H      458.277    -940.895     258.538
  H      451.607    -946.341     259.987
  H      457.181    -938.766     259.470
  H      450.783    -944.803     260.139
  H      456.246    -939.855     260.531
  P      455.252    -939.056     256.140
  C      453.455    -939.851     254.418
  O      454.690    -940.111     255.058
  O      455.939    -937.915     255.245
  O      454.213    -938.519     257.076
  H      455.890    -937.054     255.707
  H      453.233    -940.645     253.736
  H      453.519    -938.927     253.882
  H      452.680    -939.784     255.152

 6  7  8  9  10  11  12  13  14  15  16  26  30  31  32  33  35 0
 6-311+G(2d,p)
 ****
 37  38 0
 6-311+G(2d,p)
 ****
 1  2  3  4  5  17  18  19  20  21  22  23  24  25 0
 3-21G
 ****
 27  28  29  34  36  39  40  41  42  43  44  45  46 0
 3-21G
 ****


