%nproc=1
%NoSave
%Mem=1900MB
#P OB98/GEN NMR

erre ene a

0 1
  C     -842.117     488.985     300.666
  O     -840.943     488.382     300.114
  P     -839.553     488.648     300.867
  C     -839.174     490.768     299.372
  O     -838.676     489.526     299.858
  C     -838.156     491.418     298.435
  O     -836.955     491.786     299.169
  C     -837.678     490.512     297.313
  O     -838.670     490.374     296.306
  C     -836.411     491.241     296.872
  O     -836.740     492.339     296.012
  C     -835.863     491.760     298.215
  N     -834.738     490.981     298.721
  C     -833.629     490.907     297.879
  O     -833.586     491.436     296.775
  N     -832.569     490.179     298.350
  C     -832.526     489.508     299.545
  O     -831.544     488.881     299.919
  C     -833.745     489.582     300.367
  C     -834.785     490.300     299.924
  O     -838.890     487.194     300.815
  O     -839.733     489.213     302.235
  H     -839.098     486.711     299.999
  H     -837.407     492.004     295.378
  H     -831.753     490.126     297.769
  H     -833.756     489.042     301.302
  H     -835.694     490.361     300.510
  H     -835.532     492.799     298.107
  H     -835.726     490.584     296.318
  H     -837.419     489.522     297.711
  H     -838.601     492.333     298.026
  H     -839.371     491.443     300.211
  H     -840.124     490.589     298.857
  P     -839.839     489.304     296.575
  C     -839.034     487.959     294.484
  O     -840.100     488.559     295.182
  O     -841.105     490.270     296.751
  O     -839.577     488.410     297.744
  H     -841.138     490.976     296.084
  H     -839.443     487.231     293.779
  H     -838.348     487.445     295.163
  H     -838.487     488.720     293.922
  H     -842.966     488.726     300.068
  H     -842.000     490.049     300.678
  H     -842.264     488.631     301.665

 3  4  5  6  7  8  9  10  11  12  13  24  28  29  30  31  32 0
 6-311+G(2d,p)
 ****
 33  34 0
 6-311+G(2d,p)
 ****
 1  2  14  15  16  17  18  19  20  21  22  23  25  26  27 0
 3-21G
 ****
 35  36  37  38  39  40  41  42  43  44  45 0
 3-21G
 ****


