%nproc=1
%NoSave
%Mem=1900MB
#P OB98/GEN NMR

erre ene a

0 1
  C       93.891    -112.508     -13.925
  O       92.557    -112.103     -14.159
  H       93.991    -113.565     -14.189
  H       94.142    -112.382     -12.868
  H       94.577    -111.922     -14.542
  P       92.194    -110.589     -13.772
  C       91.610    -111.191     -11.320
  O       91.147    -110.671     -12.559
  C       90.475    -111.221     -10.297
  O       90.905    -111.864      -9.077
  C       89.945    -109.844      -9.904
  O       88.992    -109.379     -10.843
  C       89.334    -110.143      -8.544
  O       88.029    -110.749      -8.684
  C       90.334    -111.143      -7.953
  N       91.364    -107.922      -4.201
  C       90.163    -108.233      -4.802
  N       89.073    -107.564      -4.364
  N       90.036    -109.112      -5.764
  C       91.216    -109.658      -6.144
  C       92.471    -109.432      -5.625
  C       92.588    -108.499      -4.524
  O       93.608    -108.245      -3.894
  N       93.416    -110.191      -6.266
  C       92.738    -110.850      -7.189
  N       91.400    -110.552      -7.160
  O       91.291    -110.093     -15.003
  O       93.360    -109.683     -13.565
  H       87.696    -110.995      -7.802
  H       91.505    -109.162     -15.192
  H       91.397    -107.260      -3.443
  H       93.165    -111.554      -7.891
  H       89.845    -111.884      -7.310
  H       89.188    -109.232      -7.961
  H       89.145    -106.695      -3.851
  H       90.767    -109.125      -9.783
  H       88.206    -107.739      -4.857
  H       89.670    -111.837     -10.719
  H       92.419    -110.553     -10.947
  H       91.994    -112.204     -11.475
  P       89.448    -108.262     -11.897
  C       88.543    -106.075     -10.828
  O       88.381    -107.064     -11.838
  O       89.150    -108.958     -13.309
  O       90.877    -107.854     -11.792
  H       89.986    -109.243     -13.722
  H       87.763    -105.347     -10.913
  H       89.492    -105.596     -10.947
  H       88.495    -106.538      -9.865

 6  7  8  9  10  11  12  13  14  15  26  29  33  34 0
 6-311+G(2d,p)
 ****
 36  38  39  40  41 0
 6-311+G(2d,p)
 ****
 1  2  3  4  5  16  17  18  19  20  21  22  23  24  25 0
 3-21G
 ****
 27  28  30  31  32  35  37  42  43  44  45  46  47 0
 3-21G
 ****
 48  49 0
 3-21G
 ****


