%nproc=1
%NoSave
%Mem=1900MB
#P OB98/GEN NMR

erre ene a

0 1
  C      152.173    -393.633     229.690
  O      153.590    -393.460     229.715
  P      154.527    -394.506     228.950
  C      154.612    -395.172     226.451
  O      154.610    -394.111     227.400
  C      154.788    -394.612     225.038
  O      153.745    -393.664     224.708
  C      156.087    -393.832     224.866
  O      157.286    -394.576     224.893
  C      155.805    -393.006     223.621
  O      156.040    -393.754     222.431
  C      154.299    -392.701     223.786
  N      154.045    -391.331     224.232
  C      153.050    -390.639     223.548
  O      152.436    -391.108     222.592
  N      152.808    -389.362     223.979
  C      153.472    -388.714     224.979
  O      153.231    -387.559     225.309
  C      154.529    -389.487     225.649
  C      154.764    -390.741     225.252
  O      154.251    -395.946     229.226
  O      155.997    -394.116     229.479
  H      155.753    -393.205     221.678
  H      156.488    -394.945     229.637
  H      152.086    -388.848     223.499
  H      155.080    -389.005     226.445
  H      155.538    -391.329     225.734
  H      153.773    -392.843     222.831
  H      156.447    -392.120     223.572
  H      156.165    -393.122     225.703
  H      154.721    -395.436     224.327
  H      153.679    -395.734     226.524
  H      155.415    -395.873     226.705
  P      158.087    -394.909     226.241
  C      157.806    -396.528     228.245
  O      157.398    -396.175     226.942
  O      158.460    -393.759     227.116
  O      159.437    -395.559     225.653
  H      160.174    -395.330     226.250
  H      157.247    -397.416     228.555
  H      157.596    -395.719     228.948
  H      158.875    -396.767     228.259
  H      151.708    -392.848     230.249
  H      151.921    -394.578     230.125
  H      151.828    -393.603     228.678

 3  4  5  6  7  8  9  10  11  12  13  23  28  29  30  31  32 0
 6-311+G(2d,p)
 ****
 33  34 0
 6-311+G(2d,p)
 ****
 1  2  14  15  16  17  18  19  20  21  22  24  25  26  27 0
 3-21G
 ****
 35  36  37  38  39  40  41  42  43  44  45 0
 3-21G
 ****


