%nproc=1
%NoSave
%Mem=1900MB
#P OB98/GEN NMR

erre ene a

0 1
  C      251.723     134.200    -403.414
  O      252.279     133.465    -402.329
  P      252.412     134.219    -400.918
  C      252.489     133.447    -398.440
  O      252.352     133.066    -399.806
  C      252.001     132.335    -397.520
  O      250.597     132.121    -397.720
  C      252.659     130.983    -397.763
  O      253.934     130.896    -397.141
  C      251.659     130.050    -397.093
  O      251.896     130.024    -395.672
  C      250.315     130.732    -397.398
  N      247.494     126.805    -398.917
  C      248.038     127.084    -397.672
  N      247.764     126.199    -396.690
  N      248.780     128.128    -397.421
  C      248.933     128.945    -398.489
  C      248.448     128.778    -399.769
  C      247.672     127.594    -400.049
  O      247.223     127.265    -401.140
  N      248.804     129.831    -400.577
  C      249.464     130.650    -399.783
  N      249.602     130.140    -398.512
  O      250.996     134.953    -400.763
  O      253.550     135.178    -400.817
  H      251.240     129.413    -395.287
  H      251.087     135.735    -400.181
  H      246.917     126.002    -399.051
  H      249.866     131.609    -400.079
  H      249.658     130.728    -396.520
  H      251.733     129.018    -397.448
  H      247.098     125.449    -396.792
  H      252.716     130.757    -398.836
  H      248.127     126.400    -395.762
  H      252.155     132.661    -396.484
  H      251.890     134.350    -398.255
  H      253.542     133.682    -398.242
  P      254.712     129.497    -397.295
  C      257.229     128.973    -396.905
  O      256.262     129.885    -397.392
  O      254.335     129.028    -398.776
  O      254.351     128.478    -396.265
  H      254.392     128.054    -398.848
  H      256.933     127.937    -397.095
  H      257.362     129.119    -395.833
  H      258.180     129.162    -397.408
  H      251.694     133.581    -404.286
  H      252.327     135.061    -403.608
  H      250.730     134.510    -403.163

 3  4  5  6  7  8  9  10  11  12  23  26  30  31  33  0
 6-311+G(2d,p)
 ****
 35  36  37  38 0
 6-311+G(2d,p)
 ****
 1  2  13  14  15  16  17  18  19  20  21  22  24  25  27  28  29 0
 3-21G
 ****
 32  34  39  40  41  42  43  44  45  46  47  48  49 0
 3-21G
 ****


