%nproc=1
%NoSave
%Mem=1900MB
#P OB98/GEN NMR

erre ene a

0 1
  C      742.890    -472.643    -895.250
  O      742.049    -471.986    -894.280
  P      742.214    -470.397    -894.110
  C      739.727    -470.082    -894.790
  O      741.081    -469.690    -894.980
  C      738.778    -468.905    -895.060
  O      738.754    -467.991    -893.920
  C      739.133    -468.060    -896.270
  O      738.650    -468.626    -897.470
  C      738.409    -466.759    -895.970
  O      737.010    -466.904    -896.320
  C      738.578    -466.649    -894.450
  N      740.560    -461.989    -894.740
  C      739.374    -462.493    -895.250
  N      738.612    -461.623    -895.940
  N      738.985    -463.723    -895.110
  C      739.837    -464.479    -894.390
  C      741.050    -464.113    -893.830
  C      741.478    -462.736    -894.020
  O      742.537    -462.239    -893.600
  N      741.642    -465.153    -893.180
  C      740.796    -466.144    -893.320
  N      739.710    -465.806    -894.060
  O      743.556    -470.084    -894.940
  O      742.324    -469.951    -892.690
  H      736.993    -467.148    -897.260
  H      743.991    -469.298    -894.570
  H      740.830    -461.043    -894.900
  H      740.955    -467.151    -892.900
  H      737.676    -466.232    -893.950
  H      738.807    -465.927    -896.550
  H      738.816    -460.633    -896.060
  H      740.239    -467.880    -896.300
  H      737.711    -461.956    -896.300
  H      737.767    -469.327    -895.180
  H      739.575    -470.467    -893.780
  H      739.498    -470.925    -895.460
  P      739.714    -469.022    -898.610
  C      739.046    -471.477    -898.070
  O      740.082    -470.562    -898.360
  O      741.033    -468.221    -898.170
  O      739.299    -468.665    -900.000
  H      741.548    -467.954    -898.960
  H      739.471    -472.497    -898.100
  H      738.239    -471.407    -898.820
  H      738.648    -471.277    -897.070
  H      742.675    -473.691    -895.257
  H      743.917    -472.491    -894.992
  H      742.702    -472.234    -896.221

 3  4  5  6  7  8  9  10  11  12  23  26  30  31 0
 6-311+G(2d,p)
 ****
 33  35  36  37  38 0
 6-311+G(2d,p)
 ****
 1  2  13  14  15  16  17  18  19  20  21  22  24  25 0
 3-21G
 ****
 27  28  29  32  34  39  40  41  42  43  44  45  46  47  48  49 0
 3-21G
 ****


