%nproc=1
%NoSave
%Mem=1900MB
#P OB98/GEN NMR

erre ene a

0 1
  C     -109.907    -317.635    -378.527
  O     -111.171    -318.263    -378.542
  H     -110.020    -316.616    -378.900
  H     -109.202    -318.169    -379.169
  H     -109.518    -317.588    -377.504
  P     -111.259    -319.813    -378.143
  C     -111.230    -319.374    -375.594
  O     -110.566    -319.959    -376.704
  C     -110.539    -319.761    -374.279
  O     -109.206    -319.179    -374.257
  C     -111.273    -319.259    -373.018
  O     -111.003    -320.196    -371.968
  C     -110.564    -317.946    -372.763
  O     -110.836    -317.455    -371.475
  C     -109.120    -318.342    -373.081
  N     -108.251    -317.193    -373.292
  C     -107.057    -317.182    -372.560
  O     -106.796    -318.099    -371.783
  N     -106.206    -316.114    -372.704
  C     -106.554    -315.114    -373.454
  N     -105.670    -314.079    -373.545
  C     -107.831    -315.063    -374.201
  C     -108.621    -316.129    -374.075
  O     -110.772    -320.778    -379.175
  O     -112.811    -320.044    -377.822
  H     -110.823    -318.179    -370.812
  H     -113.231    -320.531    -378.556
  H     -108.077    -314.199    -374.800
  H     -109.580    -316.184    -374.578
  H     -108.696    -318.959    -372.273
  H     -110.905    -317.177    -373.469
  H     -112.353    -319.161    -373.170
  H     -110.413    -320.847    -374.254
  H     -104.811    -314.155    -373.014
  H     -112.262    -319.741    -375.596
  H     -105.840    -313.242    -374.080
  H     -111.244    -318.282    -375.691
  P     -111.670    -321.656    -371.910
  C     -109.659    -323.116    -372.602
  O     -110.941    -322.612    -372.967
  O     -113.161    -321.645    -372.020
  O     -111.225    -322.258    -370.490
  H     -111.919    -322.860    -370.164
  H     -109.283    -323.737    -373.388
  H     -109.744    -323.691    -371.704
  H     -108.987    -322.299    -372.440

 6  7  8  9  10  11  12  13  14  15  16  26  30  31  32  33  35 0
 6-311+G(2d,p)
 ****
 37  38 0
 6-311+G(2d,p)
 ****
 1  2  3  4  5  17  18  19  20  21  22  23  24  25 0
 3-21G
 ****
 27  28  29  34  36  39  40  41  42  43  44  45  46 0
 3-21G
 ****


