%nproc=1
%NoSave
%Mem=1900MB
#P OB98/GEN NMR

erre ene a

0 1
  C      128.547     198.992    -369.135
  O      129.483     200.059    -368.948
  P      129.562     201.160    -370.119
  C      128.283     202.971    -368.755
  O      129.484     202.605    -369.423
  C      127.737     204.284    -369.310
  O      126.341     204.438    -368.992
  C      128.409     205.526    -368.746
  O      129.654     205.783    -369.380
  C      127.392     206.601    -369.104
  O      127.578     207.018    -370.469
  C      126.056     205.858    -368.949
  N      121.867     207.765    -366.824
  C      122.203     207.633    -368.157
  N      121.278     208.045    -369.053
  N      123.340     207.145    -368.577
  C      124.155     206.745    -367.570
  C      123.937     206.823    -366.215
  C      122.686     207.397    -365.763
  O      122.353     207.565    -364.595
  N      124.991     206.310    -365.505
  C      125.834     205.894    -366.430
  N      125.378     206.151    -367.699
  O      128.141     201.020    -370.841
  O      130.695     200.955    -371.068
  H      127.143     207.889    -370.565
  H      128.209     201.299    -371.773
  H      120.979     208.156    -366.557
  H      126.780     205.403    -366.233
  H      125.368     206.077    -369.771
  H      127.485     207.499    -368.484
  H      120.356     208.364    -368.801
  H      128.510     205.459    -367.655
  H      121.493     207.923    -370.034
  H      127.845     204.264    -370.402
  H      128.472     203.077    -367.684
  H      127.553     202.162    -368.870
  P      130.984     205.348    -368.591
  C      132.072     203.667    -370.241
  O      132.053     204.984    -369.726
  O      130.583     203.930    -367.964
  O      131.431     206.316    -367.549
  H      131.084     203.772    -367.142
  H      131.059     203.298    -370.423
  H      132.584     203.003    -369.537
  H      132.620     203.667    -371.188
  H      128.588     198.330    -368.295
  H      128.794     198.453    -370.026
  H      127.560     199.395    -369.224

 3  4  5  6  7  8  9  10  11  12  23  26  30  31  33  0
 6-311+G(2d,p)
 ****
 35  36  37  38 0
 6-311+G(2d,p)
 ****
 1  2  13  14  15  16  17  18  19  20  21  22  24  25  27  28  29 0
 3-21G
 ****
 32  34  39  40  41  42  43  44  45  46  47  48  49 0
 3-21G
 ****


