%nproc=1
%NoSave
%Mem=1900MB
#P OB98/GEN NMR

erre ene a

0 1
  C      178.956    -282.919      20.100
  O      177.659    -282.363      19.919
  P      176.440    -283.274      19.434
  C      174.984    -281.155      18.908
  O      175.504    -282.396      18.484
  C      173.785    -280.791      18.017
  O      174.238    -280.384      16.712
  C      172.836    -281.977      17.837
  O      171.782    -281.921      18.785
  C      172.368    -281.814      16.403
  O      171.307    -280.848      16.329
  C      173.644    -281.269      15.720
  N      174.675    -282.235      15.298
  C      174.642    -282.762      14.009
  O      173.805    -282.449      13.167
  N      175.604    -283.704      13.722
  C      176.595    -284.112      14.567
  O      177.290    -285.111      14.392
  C      176.741    -283.328      15.796
  C      175.780    -282.458      16.112
  O      175.565    -283.448      20.759
  O      176.818    -284.594      18.838
  H      170.525    -281.253      16.748
  H      175.752    -284.303      21.186
  H      175.497    -284.193      12.838
  H      177.600    -283.524      16.433
  H      175.848    -281.890      17.036
  H      173.392    -280.666      14.842
  H      171.962    -282.746      16.014
  H      173.395    -282.920      17.925
  H      173.254    -279.941      18.467
  H      175.752    -280.382      18.842
  H      174.669    -281.216      19.954
  P      171.545    -283.155      19.777
  C      169.398    -281.886      20.380
  O      169.969    -283.146      20.088
  O      172.437    -283.205      20.976
  O      171.755    -284.429      18.830
  H      172.664    -284.780      18.936
  H      168.311    -281.989      20.390
  H      169.677    -281.154      19.622
  H      169.732    -281.550      21.366
  H      179.630    -282.154      20.425
  H      179.301    -283.328      19.173
  H      178.912    -283.693      20.837

 3  4  5  6  7  8  9  10  11  12  13  23  28  29  30  31  32 0
 6-311+G(2d,p)
 ****
 33  34 0
 6-311+G(2d,p)
 ****
 1  2  14  15  16  17  18  19  20  21  22  24  25  26  27 0
 3-21G
 ****
 35  36  37  38  39  40  41  42  43  44  45 0
 3-21G
 ****


