%nproc=1
%NoSave
%Mem=1900MB
#P OB98/GEN NMR

erre ene a

0 1
  C      137.159     -27.634     133.703
  O      138.552     -27.786     133.882
  P      139.251     -27.515     135.301
  C      139.889     -25.076     134.793
  O      140.365     -26.393     135.029
  C      141.042     -24.075     134.694
  O      140.530     -22.786     134.257
  C      141.805     -23.849     136.006
  O      143.168     -23.608     135.641
  C      141.165     -22.583     136.542
  O      141.974     -21.927     137.511
  C      140.928     -21.807     135.241
  N      139.933     -20.754     135.404
  C      140.340     -19.605     136.086
  O      141.467     -19.544     136.585
  N      139.447     -18.573     136.238
  C      138.224     -18.723     135.838
  N      137.386     -17.666     136.009
  C      137.720     -19.968     135.227
  C      138.622     -20.927     135.028
  O      139.742     -28.732     136.009
  O      138.140     -26.706     136.119
  H      141.515     -21.106     137.791
  H      137.437     -27.322     136.450
  H      136.678     -20.064     134.959
  H      138.346     -21.874     134.587
  H      141.862     -21.348     134.888
  H      140.208     -22.827     137.018
  H      141.734     -24.685     136.704
  H      141.730     -24.431     133.918
  H      137.777     -16.825     136.419
  H      139.248     -24.792     135.633
  H      136.440     -17.647     135.659
  H      139.277     -25.057     133.885
  P      144.370     -24.410     136.334
  C      144.497     -22.926     138.414
  O      145.165     -23.364     137.247
  O      145.223     -25.204     135.398
  O      143.649     -25.357     137.408
  H      144.268     -26.054     137.693
  H      145.220     -22.455     139.084
  H      144.025     -23.765     138.935
  H      143.732     -22.192     138.145
  H      136.903     -27.862     132.690
  H      136.879     -26.625     133.923
  H      136.640     -28.300     134.361

 3  4  5  6  7  8  9  10  11  12  13  23  27  28  29  30  32 0
 6-311+G(2d,p)
 ****
 34  35 0
 6-311+G(2d,p)
 ****
 1  2  14  15  16  17  18  19  20  21  22  24  25  26 0
 3-21G
 ****
 31  33  36  37  38  39  40  41  42  43  44  45  46 0
 3-21G
 ****


