%nproc=1
%NoSave
%Mem=1900MB
#P OB98/GEN NMR

erre ene a

0 1
  C       60.074    -209.571     117.926
  O       59.866    -208.521     118.847
  H       60.340    -209.140     116.958
  H       59.163    -210.163     117.806
  H       60.894    -210.214     118.260
  P       59.399    -208.883     120.337
  C       57.232    -207.489     120.500
  O       57.797    -208.789     120.359
  C       55.705    -207.559     120.357
  O       55.411    -208.140     119.061
  C       55.050    -208.432     121.438
  O       53.999    -207.762     122.131
  C       54.714    -209.716     120.691
  O       53.636    -210.445     121.240
  C       54.498    -209.237     119.252
  N       54.721    -210.274     118.243
  C       53.950    -211.429     118.336
  O       53.090    -211.642     119.187
  N       54.197    -212.382     117.376
  C       55.119    -212.297     116.378
  O       55.291    -213.183     115.545
  C       55.922    -211.065     116.351
  C       55.692    -210.126     117.271
  O       60.082    -208.128     121.427
  O       59.668    -210.458     120.457
  H       53.413    -211.158     120.603
  H       60.460    -210.612     121.004
  H       53.633    -213.218     117.423
  H       56.674    -210.971     115.578
  H       56.264    -209.201     117.282
  H       53.481    -208.862     119.119
  H       55.591    -210.373     120.720
  H       55.767    -208.663     122.236
  H       55.305    -206.539     120.361
  H       57.658    -206.850     119.723
  H       57.493    -207.081     121.483
  P       54.202    -206.633     123.239
  C       53.312    -207.824     125.408
  O       54.416    -207.339     124.657
  O       53.236    -205.494     123.194
  O       55.666    -206.035     122.910
  H       55.640    -205.091     123.160
  H       53.664    -208.259     126.320
  H       52.791    -208.565     124.838
  H       52.649    -207.014     125.631

 6  7  8  9  10  11  12  13  14  15  16  26  31  32  33  34  35 0
 6-311+G(2d,p)
 ****
 36  37 0
 6-311+G(2d,p)
 ****
 1  2  3  4  5  17  18  19  20  21  22  23  24  25 0
 3-21G
 ****
 27  28  29  30  38  39  40  41  42  43  44  45 0
 3-21G
 ****


