%nproc=1
%NoSave
%Mem=1900MB
#P OB98/GEN NMR

erre ene a

0 1
  C     -887.883     525.087     242.659
  O     -888.211     526.459     242.571
  H     -887.101     524.958     243.412
  H     -887.510     524.725     241.696
  H     -888.760     524.505     242.961
  P     -889.369     526.860     241.530
  C     -890.933     527.533     243.494
  O     -890.752     526.737     242.324
  C     -891.971     528.622     243.225
  O     -893.172     528.025     242.682
  C     -892.415     529.371     244.474
  O     -891.473     530.351     244.880
  C     -893.730     529.961     244.004
  O     -893.534     531.174     243.268
  C     -894.280     528.861     243.078
  N     -898.910     529.009     245.209
  C     -898.180     529.947     244.569
  N     -896.960     529.822     244.020
  C     -896.510     528.567     244.152
  C     -897.140     527.502     244.771
  C     -898.400     527.756     245.318
  N     -899.130     526.809     245.996
  N     -896.330     526.379     244.749
  C     -895.240     526.755     244.108
  N     -895.300     528.068     243.728
  O     -889.392     525.611     240.527
  O     -889.155     528.146     240.810
  H     -893.043     530.924     242.459
  H     -888.906     525.836     239.712
  H     -898.640     530.928     244.500
  H     -894.380     526.118     243.911
  H     -894.720     529.276     242.164
  H     -894.380     530.185     244.852
  H     -892.610     528.663     245.289
  H     -891.564     529.308     242.472
  H     -889.977     528.000     243.767
  H     -891.254     526.880     244.318
  H     -900.000     527.073     246.424
  H     -898.710     525.908     246.188
  P     -891.089     530.421     246.440
  C     -888.947     528.937     246.302
  O     -890.275     529.084     246.788
  O     -892.495     530.213     247.182
  O     -890.428     531.685     246.856
  H     -892.521     530.753     247.996
  H     -888.552     527.996     246.622
  H     -888.337     529.729     246.685
  H     -888.952     528.976     245.233

 6  7  8  9  10  11  12  13  14  15  25  28  32  33  34  35 0
 6-311+G(2d,p)
 ****
 36  37  40 0
 6-311+G(2d,p)
 ****
 1  2  3  4  5  16  17  18  19  20  21  22  23  24 0
 3-21G
 ****
 26  27  29  30  31  38  39 41  42  43  44  45  46  47  48 0
 3-21G
 ****


