%nproc=1
%NoSave
%Mem=1900MB
#P OB98/GEN NMR

erre ene a

0 1
  C      590.489    -309.835     -32.477
  O      591.232    -310.814     -33.199
  P      592.831    -310.716     -33.161
  C      593.017    -313.025     -31.938
  O      593.348    -311.652     -31.970
  C      593.936    -313.796     -30.966
  O      595.298    -313.683     -31.438
  C      593.958    -313.268     -29.537
  O      594.478    -314.286     -28.678
  C      594.953    -312.135     -29.640
  O      595.451    -311.749     -28.351
  C      596.000    -312.704     -30.622
  N      596.624    -311.675     -31.483
  C      597.855    -311.154     -31.105
  O      598.471    -311.496     -30.097
  N      598.370    -310.179     -31.914
  C      597.805    -309.706     -33.062
  O      598.267    -308.769     -33.703
  C      596.578    -310.390     -33.488
  C      596.045    -311.317     -32.689
  O      593.104    -309.224     -32.634
  O      593.486    -310.975     -34.475
  H      595.916    -312.534     -27.994
  H      593.406    -308.659     -33.373
  H      599.233    -309.742     -31.620
  H      596.133    -310.092     -34.437
  H      595.117    -311.817     -32.979
  H      596.811    -313.212     -30.083
  H      594.466    -311.257     -30.074
  H      592.984    -312.931     -29.162
  H      593.667    -314.853     -30.986
  H      593.093    -313.448     -32.941
  H      591.975    -313.149     -31.625
  P      593.431    -315.233     -27.914
  C      594.721    -317.396     -28.431
  O      593.521    -316.670     -28.612
  O      592.062    -314.670     -27.729
  O      594.160    -315.486     -26.499
  H      593.500    -315.783     -25.848
  H      594.505    -318.462     -28.466
  H      595.189    -317.159     -27.469
  H      595.413    -317.145     -29.238
  H      589.442    -310.025     -32.593
  H      590.719    -308.861     -32.856
  H      590.748    -309.884     -31.440

 3  4  5  6  7  8  9  10  11  12  13  23  28  29  30  31  32 0
 6-311+G(2d,p)
 ****
 33  34 0
 6-311+G(2d,p)
 ****
 1  2  14  15  16  17  18  19  20  21  22  24  25  26  27 0
 3-21G
 ****
 35  36  37  38  39  40  41  42  43  44  45 0
 3-21G
 ****


