%nproc=1
%NoSave
%Mem=1900MB
#P OB98/GEN NMR

erre ene a

0 1
  C      580.594     220.721     668.096
  O      579.596     220.140     668.914
  H      581.425     221.038     668.728
  H      580.193     221.595     667.573
  H      580.955     219.984     667.369
  P      578.231     219.703     668.183
  C      576.892     221.734     669.130
  O      577.450     221.105     667.993
  C      575.520     222.333     668.790
  O      575.513     222.823     667.438
  C      574.367     221.329     668.862
  O      573.944     221.058     670.181
  C      573.322     222.090     668.075
  O      572.790     223.167     668.879
  C      574.177     222.635     666.903
  N      574.188     221.731     665.754
  C      573.143     221.862     664.839
  O      572.238     222.683     665.018
  N      573.096     221.015     663.750
  C      574.043     220.134     663.566
  N      573.945     219.321     662.484
  C      575.176     219.981     664.497
  C      575.187     220.804     665.556
  O      577.393     218.999     669.355
  O      578.377     218.893     666.947
  H      572.359     222.749     669.642
  H      576.472     218.826     669.049
  H      575.935     219.224     664.316
  H      575.996     220.752     666.268
  H      573.802     223.616     666.572
  H      572.472     221.478     667.769
  H      574.605     220.397     668.330
  H      575.356     223.190     669.455
  H      573.119     219.423     661.898
  H      577.580     222.539     669.449
  H      574.537     218.524     662.348
  H      576.778     221.012     669.960
  P      573.926     219.528     670.659
  C      571.383     219.161     670.191
  O      572.733     218.802     669.871
  O      573.387     219.607     672.168
  O      575.249     218.833     670.579
  H      573.793     218.919     672.716
  H      570.709     218.593     669.584
  H      571.238     220.205     670.005
  H      571.194     218.953     671.224

 6  7  8  9  10  11  12  13  14  15  16  26  30  31  32  33  35 0
 6-311+G(2d,p)
 ****
 37  38 0
 6-311+G(2d,p)
 ****
 1  2  3  4  5  17  18  19  20  21  22  23  24  25 0
 3-21G
 ****
 27  28  29  34  36  39  40  41  42  43  44  45  46 0
 3-21G
 ****


