%nproc=1
%NoSave
%Mem=1900MB
#P OB98/GEN NMR

erre ene a

0 1
  C      506.849      30.160     -84.141
  O      506.942      30.415     -82.751
  P      506.288      29.342     -81.750
  C      505.414      31.373     -80.379
  O      505.118      30.111     -80.961
  C      504.179      31.932     -79.675
  O      503.114      32.161     -80.619
  C      503.588      31.004     -78.623
  O      504.283      31.076     -77.386
  C      502.187      31.574     -78.482
  O      502.213      32.740     -77.631
  C      501.851      31.974     -79.926
  N      497.151      30.484     -81.063
  C      497.592      31.668     -80.504
  N      496.639      32.553     -80.143
  N      498.852      31.959     -80.314
  C      499.694      30.975     -80.716
  C      499.377      29.760     -81.290
  C      497.979      29.446     -81.480
  O      497.522      28.394     -81.917
  N      500.499      29.031     -81.567
  C      501.502      29.796     -81.175
  N      501.059      30.968     -80.608
  O      507.414      29.142     -80.632
  O      505.893      28.052     -82.390
  H      502.600      32.455     -76.780
  H      507.245      28.326     -80.131
  H      496.170      30.305     -81.181
  H      502.548      29.541     -81.257
  H      501.308      32.923     -79.971
  H      501.482      30.870     -78.028
  H      495.648      32.363     -80.203
  H      503.523      29.972     -78.990
  H      496.930      33.403     -79.671
  H      504.446      32.899     -79.227
  H      505.733      32.064     -81.162
  H      506.238      31.256     -79.664
  P      504.831      29.692     -76.788
  C      504.468      30.690     -74.412
  O      504.240      29.609     -75.299
  O      506.388      29.988     -76.569
  O      504.597      28.502     -77.655
  H      506.906      29.161     -76.607
  H      503.790      30.594     -73.560
  H      504.280      31.647     -74.905
  H      505.504      30.659     -74.050
  H      507.324      30.952     -84.681
  H      505.819      30.102     -84.425
  H      507.334      29.233     -84.367

 3  4  5  6  7  8  9  10  11  12  23  26  30  31 0
 6-311+G(2d,p)
 ****
 33  35  36  37  38 0
 6-311+G(2d,p)
 ****
 1  2  13  14  15  16  17  18  19  20  21  22  24  25 0
 3-21G
 ****
 27  28  29  32  34  39  40  41  42  43  44  45  46  47  48  49 0
 3-21G
 ****


