%nproc=1
%NoSave
%Mem=1900MB
#P OB98/GEN NMR

erre ene a

0 1
  C     -208.490    -132.490    -289.213
  O     -209.658    -133.304    -289.097
  P     -210.258    -133.568    -287.636
  C     -211.177    -135.929    -287.118
  O     -211.428    -134.677    -287.753
  C     -211.261    -137.076    -288.142
  O     -210.016    -137.099    -288.904
  C     -211.396    -138.479    -287.539
  O     -212.711    -138.979    -287.285
  C     -210.810    -139.342    -288.645
  O     -211.808    -139.604    -289.643
  C     -209.710    -138.469    -289.240
  N     -204.785    -139.060    -290.553
  C     -205.875    -138.696    -291.264
  N     -207.153    -138.566    -290.839
  C     -207.246    -138.831    -289.530
  C     -206.222    -139.198    -288.671
  C     -204.939    -139.320    -289.228
  N     -203.830    -139.686    -288.500
  N     -206.706    -139.394    -287.382
  C     -208.000    -139.170    -287.483
  N     -208.375    -138.803    -288.743
  O     -210.612    -132.354    -286.844
  O     -209.081    -134.395    -286.923
  H     -212.243    -138.745    -289.837
  H     -209.029    -134.124    -285.985
  H     -205.699    -138.496    -292.320
  H     -208.703    -139.250    -286.658
  H     -209.658    -138.534    -290.334
  H     -210.470    -140.324    -288.278
  H     -210.786    -138.573    -286.624
  H     -212.078    -136.885    -288.839
  H     -211.924    -136.094    -286.331
  H     -202.953    -139.789    -288.986
  H     -203.935    -139.944    -287.532
  H     -210.204    -135.868    -286.627
  P     -212.953    -140.262    -286.359
  C     -214.175    -141.543    -288.276
  O     -214.230    -141.016    -286.985
  O     -213.043    -139.985    -284.901
  O     -211.742    -141.227    -286.775
  H     -211.798    -141.569    -287.683
  H     -215.049    -142.194    -288.439
  H     -213.271    -142.153    -288.420
  H     -214.208    -140.730    -289.016
  H     -208.214    -132.408    -290.243
  H     -207.688    -132.937    -288.663
  H     -208.693    -131.516    -288.819

 3  4  5  6  7  8  9  10  11  12  22  25  29  30  31  32 0
 6-311+G(2d,p)
 ****
 33  36  37 0
 6-311+G(2d,p)
 ****
 1  2  13  14  15  16  17  18  19  20  21  23  24  26 0
 3-21G
 ****
 27  28  34  35  38  39  40  41  42  43  44  45  46  47  48 0
 3-21G
 ****


