%nproc=1
%NoSave
%Mem=1900MB
#P OB98/GEN NMR

erre ene a

0 1
  C      390.496     -12.523      71.971
  O      389.537     -11.515      71.619
  P      387.997     -11.806      71.975
  C      386.289     -13.692      71.415
  O      387.479     -13.006      71.045
  C      385.279     -13.660      70.262
  O      384.826     -12.320      70.005
  C      385.859     -14.146      68.946
  O      385.930     -15.561      68.919
  C      384.884     -13.557      67.930
  O      383.794     -14.455      67.660
  C      384.375     -12.276      68.639
  N      384.809     -11.057      67.977
  C      384.110     -10.712      66.816
  O      383.197     -11.433      66.400
  N      384.473      -9.570      66.146
  C      385.465      -8.854      66.583
  N      385.780      -7.738      65.869
  C      386.247      -9.198      67.789
  C      385.867     -10.304      68.428
  O      387.243     -10.529      71.386
  O      387.737     -11.979      73.436
  H      383.113     -13.915      67.199
  H      386.461     -10.313      71.935
  H      387.069      -8.575      68.108
  H      386.387     -10.636      69.325
  H      383.277     -12.268      68.673
  H      385.371     -13.354      66.974
  H      386.859     -13.712      68.791
  H      384.414     -14.278      70.543
  H      385.228      -7.533      65.049
  H      385.852     -13.242      72.303
  H      386.537      -7.112      66.120
  H      386.548     -14.729      71.684
  P      387.194     -16.261      69.607
  C      389.537     -15.433      70.269
  O      388.375     -15.183      69.498
  O      387.628     -17.334      68.501
  O      386.990     -16.882      70.948
  H      388.344     -17.901      68.841
  H      390.332     -14.754      69.945
  H      389.877     -16.462      70.120
  H      389.325     -15.260      71.327
  H      391.474     -12.202      71.679
  H      390.255     -13.436      71.467
  H      390.474     -12.683      73.029

 3  4  5  6  7  8  9  10  11  12  13  21  23  27  28  29  30  32 0
 6-311+G(2d,p)
 ****
 34  35 0
 6-311+G(2d,p)
 ****
 1  2  14  15  16  17  18  19  20  22  24  25  26 0
 3-21G
 ****
 31  33  36  37  38  39  40  41  42  43  44  45  46 0
 3-21G
 ****


