%nproc=1
%NoSave
%Mem=1900MB
#P OB98/GEN NMR

erre ene a

0 1
  C      487.785     339.175     -95.039
  O      487.564     337.866     -95.520
  H      488.627     339.611     -95.584
  H      488.029     339.158     -93.974
  H      486.901     339.799     -95.209
  P      486.420     336.977     -94.837
  C      484.133     337.875     -95.627
  O      485.185     336.945     -95.861
  C      482.984     337.630     -96.615
  O      481.839     338.393     -96.151
  C      483.326     338.092     -98.038
  O      483.116     337.080     -99.019
  C      482.539     339.389     -98.187
  O      482.199     339.724     -99.516
  C      481.343     339.177     -97.255
  N      480.738     340.418     -96.772
  C      479.452     340.719     -97.215
  O      478.778     340.010     -97.959
  N      478.932     341.901     -96.754
  C      479.552     342.787     -95.929
  O      479.031     343.828     -95.545
  C      480.917     342.425     -95.512
  C      481.442     341.277     -95.948
  O      486.060     337.352     -93.436
  O      486.990     335.483     -94.916
  H      483.025     339.752    -100.038
  H      487.337     335.216     -94.043
  H      477.995     342.123     -97.062
  H      481.443     343.114     -94.864
  H      482.446     340.977     -95.660
  H      480.562     338.603     -97.758
  H      483.156     340.210     -97.797
  H      484.398     338.316     -98.131
  H      482.711     336.570     -96.584
  H      484.536     338.884     -95.755
  H      483.766     337.766     -94.600
  P      484.180     336.664    -100.139
  C      485.566     334.837     -98.866
  O      484.617     335.147     -99.874
  O      485.273     337.650    -100.388
  O      483.290     336.574    -101.481
  H      483.874     336.844    -102.221
  H      485.727     333.779     -98.841
  H      485.197     335.164     -97.916
  H      486.489     335.333     -99.081

 6  7  8  9  10  11  12  13  14  15  16  26  31  32  33  34  35 0
 6-311+G(2d,p)
 ****
 36  37 0
 6-311+G(2d,p)
 ****
 1  2  3  4  5  17  18  19  20  21  22  23  24  25 0
 3-21G
 ****
 27  28  29  30  38  39  40  41  42  43  44  45 0
 3-21G
 ****


