%nproc=1
%NoSave
%Mem=1900MB
#P OB98/GEN NMR

erre ene a

0 1
  C     -139.526     355.895     261.258
  O     -138.516     356.019     260.276
  H     -140.484     356.182     260.815
  H     -139.316     356.558     262.102
  H     -139.592     354.859     261.604
  P     -137.013     355.697     260.738
  C     -136.726     358.145     261.566
  O     -136.228     357.097     260.744
  C     -136.391     359.493     260.932
  O     -136.965     360.560     261.721
  C     -134.902     359.793     260.860
  O     -134.264     359.115     259.792
  C     -134.923     361.306     260.675
  O     -135.106     361.662     259.294
  C     -136.144     361.729     261.527
  N     -135.743     362.338     262.789
  C     -135.346     363.673     262.724
  O     -135.326     364.314     261.671
  N     -134.936     364.236     263.902
  C     -134.850     363.597     265.106
  O     -134.402     364.143     266.113
  C     -135.292     362.193     265.125
  C     -135.704     361.631     263.981
  O     -136.403     354.921     259.476
  O     -136.893     354.909     262.001
  H     -136.369     353.966     259.660
  H     -135.160     362.637     259.269
  H     -134.636     365.200     263.866
  H     -135.246     361.659     266.066
  H     -136.016     360.592     263.967
  H     -136.754     362.462     260.978
  H     -133.984     361.763     260.995
  H     -134.417     359.566     261.822
  H     -136.840     359.526     259.929
  H     -136.256     358.090     262.557
  H     -137.810     358.025     261.680
  P     -132.914     358.306     260.098
  C     -131.254     360.276     259.555
  O     -131.756     358.990     259.217
  O     -133.205     356.927     259.346
  O     -132.603     358.178     261.552
  H     -133.716     357.041     258.518
  H     -130.495     360.558     258.856
  H     -130.839     360.249     260.541
  H     -132.051     360.990     259.523

 6  7  8  9  10  11  12  13  14  15  16  27  31  32  33  34  35 0
 6-311+G(2d,p)
 ****
 36  37 0
 6-311+G(2d,p)
 ****
 1  2  3  4  5  17  18  19  20  21  22  23  24  25 0
 3-21G
 ****
 26  28  29  30  38  39  40  41  42  43  44  45 0
 3-21G
 ****


