%nproc=1
%NoSave
%Mem=1900MB
#P OB98/GEN NMR

erre ene a

0 1
  C     -133.484      45.800     132.635
  O     -132.951      45.723     131.328
  H     -134.417      46.369     132.598
  H     -132.782      46.313     133.296
  H     -133.694      44.799     133.019
  P     -131.671      44.770     131.126
  C     -130.136      46.849     131.592
  O     -130.464      45.503     131.890
  C     -128.790      47.227     132.217
  O     -128.941      47.262     133.661
  C     -127.661      46.244     131.892
  O     -126.449      46.984     131.725
  C     -127.574      45.374     133.134
  O     -126.286      44.774     133.274
  C     -127.963      46.372     134.237
  N     -128.483      45.706     135.431
  C     -127.647      45.684     136.555
  O     -126.522      46.184     136.501
  N     -128.080      45.053     137.692
  C     -129.227      44.434     137.688
  N     -129.592      43.811     138.843
  C     -130.120      44.392     136.513
  C     -129.693      45.049     135.435
  O     -131.338      44.997     129.576
  O     -131.901      43.346     131.508
  H     -126.139      44.191     132.494
  H     -131.417      45.925     129.292
  H     -131.057      43.851     136.556
  H     -130.293      45.074     134.527
  H     -127.095      46.978     134.531
  H     -128.315      44.568     133.077
  H     -127.850      45.648     130.998
  H     -128.533      48.245     131.903
  H     -128.945      43.848     139.622
  H     -130.914      47.523     131.968
  H     -130.433      43.260     138.938
  H     -130.089      46.955     130.502
  P     -125.411      46.545     130.586
  C     -123.778      45.260     132.120
  O     -124.693      45.180     131.034
  O     -124.484      47.615     130.106
  O     -126.374      46.049     129.398
  H     -125.975      46.341     128.550
  H     -123.372      44.290     132.317
  H     -124.288      45.617     132.990
  H     -122.985      45.934     131.870

 6  7  8  9  10  11  12  13  14  15  16  26  30  31  32  33  35 0
 6-311+G(2d,p)
 ****
 37  38 0
 6-311+G(2d,p)
 ****
 1  2  3  4  5  17  18  19  20  21  22  23  24  25 0
 3-21G
 ****
 27  28  29  34  36  39  40  41  42  43  44  45  46 0
 3-21G
 ****


