%nproc=1
%NoSave
%Mem=1900MB
#P OB98/GEN NMR

erre ene a

0 1
  C      133.560    -324.460    -203.385
  O      134.351    -323.850    -204.416
  P      135.110    -322.477    -204.072
  C      137.000    -323.303    -202.486
  O      135.757    -322.622    -202.615
  C      138.164    -322.313    -202.577
  O      138.022    -321.228    -201.635
  C      139.520    -322.945    -202.302
  O      140.052    -323.598    -203.452
  C      140.354    -321.712    -201.978
  O      140.751    -321.054    -203.201
  C      139.356    -320.841    -201.207
  N      140.540    -318.488    -196.884
  C      140.529    -318.014    -198.180
  N      140.875    -316.718    -198.352
  N      140.203    -318.741    -199.224
  C      139.857    -320.011    -198.896
  C      139.834    -320.597    -197.646
  C      140.205    -319.788    -196.517
  O      140.249    -320.154    -195.340
  N      139.442    -321.903    -197.726
  C      139.210    -322.111    -199.009
  N      139.464    -320.994    -199.764
  O      133.896    -321.455    -203.817
  O      136.020    -321.990    -205.149
  H      141.221    -321.719    -203.739
  H      134.179    -320.550    -204.031
  H      140.799    -317.887    -196.122
  H      138.853    -323.039    -199.432
  H      139.470    -319.769    -201.427
  H      141.273    -321.956    -201.434
  H      141.087    -316.086    -197.597
  H      139.480    -323.606    -201.429
  H      140.841    -316.337    -199.294
  H      138.169    -321.889    -203.597
  H      137.095    -324.066    -203.262
  H      137.009    -323.837    -201.530
  P      140.808    -324.993    -203.238
  C      138.535    -326.259    -203.336
  O      139.723    -325.988    -202.606
  O      141.802    -324.680    -202.022
  O      141.537    -325.498    -204.431
  H      142.612    -325.218    -202.100
  H      137.997    -327.072    -202.842
  H      138.772    -326.560    -204.358
  H      137.899    -325.366    -203.346
  H      133.119    -325.360    -203.759
  H      132.788    -323.784    -203.081
  H      134.183    -324.690    -202.546

 3  4  5  6  7  8  9  10  11  12  23  26  30  31 0
 6-311+G(2d,p)
 ****
 33  35  36  37  38 0
 6-311+G(2d,p)
 ****
 1  2  13  14  15  16  17  18  19  20  21  22  24  25 0
 3-21G
 ****
 27  28  29  32  34  39  40  41  42  43  44  45  46  47  48  49 0
 3-21G
 ****


