%nproc=1
%NoSave
%Mem=1900MB
#P OB98/GEN NMR

erre ene a

0 1
  C     -220.570     509.199     547.961
  O     -221.133     509.250     546.654
  P     -222.251     510.285     546.178
  C     -221.370     510.916     543.788
  O     -222.342     510.230     544.585
  C     -221.739     510.922     542.286
  O     -221.677     509.579     541.766
  C     -223.167     511.410     542.087
  O     -223.454     512.799     542.060
  C     -223.682     510.645     540.860
  O     -223.497     511.388     539.648
  C     -222.806     509.389     540.855
  N     -226.589     506.170     539.677
  C     -226.244     507.358     539.067
  N     -227.024     507.761     538.042
  N     -225.218     508.080     539.454
  C     -224.583     507.604     540.541
  C     -224.849     506.459     541.245
  C     -225.943     505.621     540.789
  O     -226.308     504.552     541.304
  N     -223.995     506.292     542.307
  C     -223.228     507.366     542.264
  N     -223.534     508.192     541.208
  O     -222.189     511.647     546.817
  O     -223.631     509.582     546.664
  H     -222.553     511.560     539.537
  H     -224.246     510.316     546.893
  H     -227.387     505.624     539.346
  H     -222.423     507.585     542.966
  H     -222.355     509.219     539.845
  H     -224.741     510.431     540.953
  H     -227.887     507.303     537.792
  H     -223.757     511.031     542.943
  H     -226.890     508.747     537.734
  H     -220.983     511.509     541.706
  H     -220.423     510.401     543.947
  H     -221.236     511.942     544.149
  P     -224.724     513.536     542.728
  C     -223.943     515.362     544.352
  O     -224.323     515.064     543.017
  O     -224.794     512.900     544.200
  O     -226.031     513.336     541.994
  H     -225.677     513.073     544.609
  H     -223.984     516.447     544.494
  H     -222.916     515.034     544.528
  H     -224.637     514.879     545.070
  H     -219.846     508.413     548.007
  H     -221.344     509.013     548.676
  H     -220.097     510.133     548.182

 3  4  5  6  7  8  9  10  11  12  23  26  30  31 0
 6-311+G(2d,p)
 ****
 33  35  36  37  38 0
 6-311+G(2d,p)
 ****
 1  2  13  14  15  16  17  18  19  20  21  22  24  25 0
 3-21G
 ****
 27  28  29  32  34  39  40  41  42  43  44  45  46  47  48  49 0
 3-21G
 ****


