%nproc=1
%NoSave
%Mem=1900MB
#P OB98/GEN NMR

erre ene a

0 1
  C      202.750      -2.045     159.592
  O      203.660      -1.387     158.703
  P      203.752       0.213     158.760
  C      205.086       1.866     160.268
  O      205.066       0.624     159.579
  C      206.419       2.061     160.999
  O      206.575       1.132     162.090
  C      207.639       1.848     160.110
  O      207.929       3.005     159.341
  C      208.721       1.613     161.151
  O      209.160       2.883     161.690
  C      207.977       0.809     162.224
  N      210.769      -3.234     163.674
  C      210.879      -1.916     163.945
  N      210.114      -0.898     163.514
  C      209.126      -1.354     162.717
  C      208.885      -2.672     162.348
  C      209.760      -3.640     162.864
  N      209.635      -4.985     162.583
  N      207.789      -2.755     161.515
  C      207.366      -1.510     161.398
  N      208.145      -0.627     162.097
  O      202.564       0.601     159.763
  O      203.589       0.873     157.435
  H      209.625       3.350     160.970
  H      202.165       1.449     159.492
  H      211.703      -1.641     164.611
  H      206.498      -1.198     160.819
  H      208.286       1.087     163.243
  H      209.606       1.122     160.737
  H      207.518       0.949     159.481
  H      206.434       3.082     161.408
  H      204.256       1.915     160.976
  H      210.293      -5.619     163.013
  H      208.873      -5.291     162.000
  H      204.913       2.678     159.543
  P      207.905       2.851     157.740
  C      205.598       2.527     156.574
  O      206.464       3.398     157.278
  O      207.803       1.266     157.537
  O      209.084       3.442     157.048
  H      208.238       1.011     156.693
  H      204.587       2.934     156.611
  H      205.595       1.528     157.024
  H      205.917       2.459     155.527
  H      202.802      -3.102     159.437
  H      201.754      -1.704     159.399
  H      203.014      -1.820     160.604

 3  4  5  6  7  8  9  10  11  12  22  25  29  30  31  32 0
 6-311+G(2d,p)
 ****
 33  36  37 0
 6-311+G(2d,p)
 ****
 1  2  13  14  15  16  17  18  19  20  21  23  24  26 0
 3-21G
 ****
 27  28  34  35  38  39  40  41  42  43  44  45  46  47  48 0
 3-21G
 ****


