%nproc=1
%NoSave
%Mem=1900MB
#P OB98/GEN NMR

erre ene a

0 1
  C      184.426      78.230    -417.963
  O      185.241      78.091    -416.814
  H      184.368      79.284    -418.250
  H      184.879      77.663    -418.783
  H      183.424      77.837    -417.773
  P      184.670      78.700    -415.444
  C      186.503      80.531    -415.182
  O      185.941      79.324    -414.682
  C      187.339      81.218    -414.102
  O      186.770      80.908    -412.800
  C      188.804      80.773    -414.089
  O      189.628      81.908    -413.800
  C      188.867      79.785    -412.937
  O      190.170      79.679    -412.384
  C      187.830      80.376    -411.981
  N      188.817      77.702    -407.740
  C      189.482      78.704    -408.351
  N      189.147      79.369    -409.475
  C      187.961      78.930    -409.951
  C      187.170      77.917    -409.439
  C      187.643      77.277    -408.280
  N      186.993      76.230    -407.673
  N      186.048      77.738    -410.226
  C      186.166      78.625    -411.193
  N      187.305      79.371    -411.070
  O      184.331      77.381    -414.598
  O      183.489      79.602    -415.578
  H      190.126      79.103    -411.589
  H      183.476      77.016    -414.896
  H      190.414      79.011    -407.874
  H      185.458      78.766    -412.006
  H      188.236      81.187    -411.366
  H      188.559      78.794    -413.284
  H      189.120      80.324    -415.032
  H      187.251      82.306    -414.235
  H      185.690      81.193    -415.498
  H      187.433      75.787    -406.880
  H      186.154      75.863    -408.094
  H      187.131      80.303    -416.048
  P      190.379      82.591    -415.051
  C      192.819      82.084    -414.342
  O      191.829      83.081    -414.571
  O      189.567      83.955    -415.270
  O      190.365      81.749    -416.285
  H      189.319      84.055    -416.206
  H      193.729      82.551    -414.029
  H      192.991      81.538    -415.246
  H      192.481      81.414    -413.579

 6  7  8  9  10  11  12  13  14  15  25  28  32  33  34  35 0
 6-311+G(2d,p)
 ****
 36  39  40 0
 6-311+G(2d,p)
 ****
 1  2  3  4  5  16  17  18  19  20  21  22  23  24 0
 3-21G
 ****
 26  27  29  30  31  37  38  41  42  43  44  45  46  47 0
 3-21G
 ****
 48 0
 3-21G
 ****


