%nproc=1
%NoSave
%Mem=1900MB
#P OB98/GEN NMR

erre ene a

0 1
  C       74.038     -86.563    -187.562
  O       73.161     -86.007    -186.579
  P       73.142     -84.403    -186.484
  C       73.994     -84.264    -184.037
  O       74.250     -83.970    -185.403
  C       74.619     -83.206    -183.120
  O       76.059     -83.406    -183.010
  C       74.400     -81.764    -183.608
  O       74.251     -80.951    -182.436
  C       75.716     -81.464    -184.308
  O       75.930     -80.080    -184.532
  C       76.682     -82.149    -183.349
  N       81.207     -79.966    -184.243
  C       80.071     -79.496    -183.679
  N       78.902     -80.141    -183.479
  C       78.984     -81.406    -183.926
  C       80.068     -82.027    -184.526
  C       81.228     -81.248    -184.680
  N       82.379     -81.709    -185.273
  N       79.754     -83.334    -184.874
  C       78.480     -83.459    -184.551
  N       77.999     -82.355    -183.905
  O       71.752     -84.089    -185.756
  O       73.260     -83.724    -187.807
  H       75.202     -79.712    -185.072
  H       71.077     -83.830    -186.408
  H       80.108     -78.461    -183.346
  H       77.863     -84.324    -184.762
  H       76.811     -81.579    -182.417
  H       75.728     -81.960    -185.286
  H       73.520     -81.642    -184.244
  H       74.193     -83.328    -182.116
  H       74.402     -85.244    -183.781
  H       83.161     -81.075    -185.342
  H       82.433     -82.654    -185.624
  H       72.911     -84.332    -183.885
  P       72.803     -80.349    -182.092
  C       73.555     -77.973    -181.479
  O       72.922     -78.787    -182.447
  O       72.875     -80.311    -180.491
  O       71.630     -81.096    -182.634
  H       73.694     -79.883    -180.184
  H       73.641     -76.960    -181.876
  H       74.554     -78.354    -181.257
  H       72.952     -77.945    -180.565
  H       73.970     -87.631    -187.537
  H       75.044     -86.265    -187.352
  H       73.756     -86.210    -188.532

 3  4  5  6  7  8  9  10  11  12  22  25  29  30  31  32 0
 6-311+G(2d,p)
 ****
 33  36  37 0
 6-311+G(2d,p)
 ****
 1  2  13  14  15  16  17  18  19  20  21  23  24  26 0
 3-21G
 ****
 27  28  34  35  38  39  40  41  42  43  44  45  46  47  48 0
 3-21G
 ****


