%nproc=1
%NoSave
%Mem=1900MB
#P OB98/GEN NMR

erre ene a

0 1
  C     -161.191     186.346    -429.734
  O     -159.968     187.060    -429.790
  H     -161.482     186.072    -430.751
  H     -161.978     186.970    -429.302
  H     -161.074     185.434    -429.142
  P     -159.329     187.582    -428.417
  C     -157.217     186.153    -428.837
  O     -157.740     187.455    -428.592
  C     -155.761     186.246    -429.278
  O     -155.656     186.994    -430.513
  C     -154.852     186.961    -428.273
  O     -154.468     186.071    -427.238
  C     -153.694     187.361    -429.181
  O     -152.867     186.212    -429.441
  C     -154.436     187.785    -430.461
  N     -155.223     191.793    -433.471
  C     -154.790     190.520    -433.784
  N     -154.481     190.293    -435.084
  N     -154.653     189.558    -432.905
  C     -154.928     189.953    -431.639
  C     -155.347     191.187    -431.202
  C     -155.552     192.226    -432.189
  O     -155.946     193.364    -431.961
  N     -155.461     191.230    -429.833
  C     -155.148     190.004    -429.449
  N     -154.803     189.196    -430.512
  O     -159.850     186.950    -427.159
  O     -159.581     189.162    -428.448
  H     -152.559     185.894    -428.569
  H     -160.417     189.397    -427.999
  H     -155.290     192.490    -434.194
  H     -155.159     189.654    -428.425
  H     -153.864     187.564    -431.367
  H     -153.059     188.130    -428.751
  H     -154.301     191.050    -435.732
  H     -155.321     187.881    -427.883
  H     -154.121     189.377    -435.326
  H     -155.399     185.228    -429.482
  H     -157.824     185.696    -429.625
  H     -157.291     185.540    -427.938
  P     -153.869     186.621    -425.851
  C     -154.554     184.576    -424.430
  O     -153.481     185.310    -425.018
  O     -154.752     187.590    -425.124
  O     -152.440     187.221    -426.244
  H     -152.466     188.173    -426.517
  H     -154.162     183.730    -423.906
  H     -155.221     184.243    -425.198
  H     -155.084     185.205    -423.746

 6  7  8  9  10  11  12  13  14  15  26  29  33  34 0
 6-311+G(2d,p)
 ****
 36  38  39  40  41 0
 6-311+G(2d,p)
 ****
 1  2  3  4  5  16  17  18  19  20  21  22  23  24  25 0
 3-21G
 ****
 27  28  30  31  32  35  37  42  43  44  45  46  47 0
 3-21G
 ****
 48  49 0
 3-21G
 ****


