%nproc=1
%NoSave
%Mem=1900MB
#P OB98/GEN NMR

erre ene a

0 1
  C       90.995      17.250      51.476
  O       89.579      17.455      51.477
  P       88.679      16.392      52.270
  C       87.816      15.173      50.137
  O       87.491      15.913      51.309
  C       86.664      14.237      49.769
  O       86.458      13.239      50.785
  C       85.331      14.953      49.637
  O       85.249      15.631      48.399
  C       84.339      13.804      49.775
  O       84.026      13.215      48.502
  C       85.093      12.799      50.675
  N       84.479      12.647      51.984
  C       83.276      11.934      52.016
  O       82.785      11.498      50.973
  N       82.649      11.759      53.223
  C       83.166      12.272      54.297
  N       82.497      12.069      55.463
  C       84.418      13.053      54.301
  C       85.016      13.202      53.121
  O       87.930      17.289      53.364
  O       89.464      15.290      52.905
  H       83.425      12.467      48.699
  H       87.783      16.776      54.178
  H       84.805      13.467      55.220
  H       85.942      13.762      53.029
  H       85.121      11.810      50.200
  H       83.392      14.144      50.206
  H       85.200      15.657      50.468
  H       86.914      13.733      48.824
  H       81.639      11.532      55.423
  H       88.729      14.596      50.298
  H       82.803      12.429      56.355
  H       88.028      15.876      49.325
  P       85.662      17.177      48.368
  C       83.102      17.365      48.387
  O       84.318      17.960      47.977
  O       86.504      17.272      47.006
  O       86.425      17.707      49.534
  H       86.899      18.157      46.917
  H       82.294      18.087      48.249
  H       83.146      17.086      49.443
  H       82.895      16.483      47.776
  H       91.468      18.028      50.914
  H       91.218      16.303      51.031
  H       91.358      17.266      52.482

 3  4  5  6  7  8  9  10  11  12  13  21  23  27  28  29  30  32 0
 6-311+G(2d,p)
 ****
 34  35 0
 6-311+G(2d,p)
 ****
 1  2  14  15  16  17  18  19  20  22  24  25  26 0
 3-21G
 ****
 31  33  36  37  38  39  40  41  42  43  44  45  46 0
 3-21G
 ****


