%nproc=1
%NoSave
%Mem=1900MB
#P OB98/GEN NMR

erre ene a

0 1
  C     -338.569    -775.132     186.928
  O     -337.657    -776.204     187.090
  H     -338.031    -774.190     187.074
  H     -339.372    -775.195     187.670
  H     -338.993    -775.142     185.920
  P     -338.214    -777.701     187.004
  C     -339.512    -777.576     189.242
  O     -339.593    -777.723     187.826
  C     -339.090    -778.897     189.890
  O     -338.823    -778.697     191.294
  C     -340.150    -779.990     189.818
  O     -340.204    -780.543     188.514
  C     -339.647    -780.937     190.901
  O     -338.543    -781.726     190.425
  C     -339.164    -779.930     191.981
  N     -340.160    -779.680     193.027
  C     -340.401    -780.745     193.903
  O     -339.811    -781.821     193.760
  N     -341.327    -780.565     194.906
  C     -341.926    -779.426     195.049
  N     -342.822    -779.314     196.063
  C     -341.662    -778.264     194.172
  C     -340.791    -778.466     193.186
  O     -337.255    -778.791     187.377
  O     -338.700    -777.849     185.482
  H     -338.939    -782.431     189.869
  H     -337.992    -778.237     184.931
  H     -342.174    -777.322     194.334
  H     -340.549    -777.668     192.488
  H     -338.249    -780.290     192.464
  H     -340.423    -781.633     191.241
  H     -341.125    -779.605     190.125
  H     -338.153    -779.217     189.419
  H     -342.950    -780.127     196.655
  H     -340.505    -777.284     189.593
  H     -343.211    -778.430     196.372
  H     -338.805    -776.784     189.508
  P     -341.599    -780.697     187.725
  C     -341.574    -783.243     188.106
  O     -342.285    -782.029     188.309
  O     -341.499    -780.643     186.242
  O     -342.509    -779.537     188.353
  H     -342.264    -778.657     187.971
  H     -342.124    -784.054     188.535
  H     -340.614    -783.177     188.574
  H     -341.449    -783.412     187.057

 6  7  8  9  10  11  12  13  14  15  16  26  30  31  32  33  35 0
 6-311+G(2d,p)
 ****
 37  38 0
 6-311+G(2d,p)
 ****
 1  2  3  4  5  17  18  19  20  21  22  23  24  25 0
 3-21G
 ****
 27  28  29  34  36  39  40  41  42  43  44  45  46 0
 3-21G
 ****


