%nproc=1
%NoSave
%Mem=1900MB
#P OB98/GEN NMR

erre ene a

0 1
  C      -27.039     -24.075      21.008
  O      -25.779     -24.665      20.743
  P      -24.600     -23.734      20.184
  C      -23.033     -21.981      21.356
  O      -24.264     -22.679      21.345
  C      -23.245     -20.536      21.816
  O      -24.003     -19.824      20.799
  C      -24.010     -20.396      23.139
  O      -23.464     -19.263      23.826
  C      -25.428     -20.108      22.679
  O      -26.208     -19.467      23.676
  C      -25.157     -19.248      21.440
  N      -26.286     -19.194      20.511
  C      -27.513     -18.762      21.003
  O      -27.708     -18.444      22.174
  N      -28.540     -18.732      20.095
  C      -28.479     -19.144      18.796
  O      -29.436     -19.112      18.032
  C      -27.170     -19.637      18.346
  C      -26.150     -19.629      19.205
  O      -25.379     -22.871      19.087
  O      -23.426     -24.495      19.671
  H      -26.293     -22.663      19.346
  H      -26.967     -19.041      23.238
  H      -29.430     -18.385      20.420
  H      -27.085     -19.988      17.325
  H      -25.176     -19.988      18.897
  H      -24.882     -18.231      21.742
  H      -25.922     -21.049      22.413
  H      -23.928     -21.287      23.767
  H      -22.264     -20.051      21.888
  H      -22.609     -21.976      20.349
  H      -22.329     -22.500      22.015
  P      -23.468     -19.278      25.436
  C      -21.987     -20.508      27.208
  O      -22.523     -20.481      25.905
  O      -24.941     -19.854      25.709
  O      -23.237     -17.950      26.078
  H      -25.141     -20.643      25.182
  H      -21.670     -21.529      27.437
  H      -22.725     -20.197      27.951
  H      -21.116     -19.849      27.260
  H      -27.713     -24.822      21.373
  H      -27.431     -23.650      20.107
  H      -26.925     -23.307      21.744

 3  4  5  6  7  8  9  10  11  12  13  24  28  29  30  31  32 0
 6-311+G(2d,p)
 ****
 33  34 0
 6-311+G(2d,p)
 ****
 1  2  14  15  16  17  18  19  20  21  22  23  25  26  27 0
 3-21G
 ****
 35  36  37  38  39  40  41  42  43  44  45 0
 3-21G
 ****


