%nproc=1
%NoSave
%Mem=1900MB
#P OB98/GEN NMR

erre ene a

0 1
  C      146.421    -366.082     211.009
  O      147.482    -366.892     211.484
  H      146.770    -365.528     210.130
  H      146.122    -365.365     211.781
  H      145.570    -366.704     210.722
  P      147.167    -367.822     212.753
  C      147.260    -369.929     211.226
  O      147.746    -369.277     212.393
  C      148.287    -370.942     210.731
  O      149.434    -370.235     210.194
  C      148.840    -371.860     211.816
  O      147.952    -372.915     212.124
  C      150.139    -372.325     211.172
  O      149.920    -373.429     210.283
  C      150.588    -371.092     210.386
  N      155.551    -371.103     211.551
  C      154.794    -371.945     210.802
  N      153.475    -371.851     210.526
  C      152.947    -370.765     211.104
  C      153.586    -369.828     211.895
  C      154.960    -370.025     212.120
  N      155.722    -369.199     212.919
  N      152.689    -368.878     212.348
  C      151.527    -369.228     211.828
  N      151.636    -370.355     211.063
  O      145.581    -368.015     212.670
  O      147.600    -367.271     214.072
  H      150.809    -373.732     209.994
  H      145.139    -367.355     213.240
  H      155.322    -372.795     210.380
  H      150.592    -368.700     211.977
  H      150.965    -371.352     209.384
  H      150.854    -372.660     211.932
  H      149.076    -371.275     212.714
  H      147.837    -371.526     209.917
  H      147.080    -369.181     210.445
  H      146.309    -370.429     211.470
  H      156.694    -369.414     213.047
  H      155.262    -368.447     213.428
  P      147.980    -373.538     213.600
  C      145.584    -372.746     214.250
  O      146.465    -373.841     214.032
  O      148.387    -372.289     214.521
  O      148.913    -374.683     213.776
  H      149.338    -372.324     214.743
  H      144.619    -373.115     214.530
  H      145.500    -372.172     213.351
  H      145.970    -372.128     215.033

 6  7  8  9  10  11  12  13  14  15  25  28  32  33  34  35 0
 6-311+G(2d,p)
 ****
 36  37  40 0
 6-311+G(2d,p)
 ****
 1  2  3  4  5  16  17  18  19  20  21  22  23  24 0
 3-21G
 ****
 26  27  29  30  31  38  39 41  42  43  44  45  46  47  48 0
 3-21G
 ****


