%nproc=1
%NoSave
%Mem=1900MB
#P OB98/GEN NMR

erre ene a

0 1
  C      401.079    -333.346     141.322
  O      400.841    -332.160     140.600
  P      399.432    -331.772     139.972
  C      398.491    -329.892     141.526
  O      398.469    -331.263     141.149
  C      397.339    -329.567     142.484
  O      396.085    -329.822     141.800
  C      397.362    -330.476     143.727
  O      397.072    -329.799     144.943
  C      396.440    -331.620     143.326
  O      395.937    -332.355     144.431
  C      395.401    -330.900     142.474
  N      391.583    -334.112     141.512
  C      391.769    -333.284     142.601
  N      390.932    -333.482     143.644
  N      392.716    -332.386     142.674
  C      393.546    -332.387     141.604
  C      393.460    -333.156     140.466
  C      392.388    -334.121     140.386
  O      392.250    -334.949     139.491
  N      394.514    -332.934     139.620
  C      395.263    -332.058     140.259
  N      394.730    -331.722     141.486
  O      398.865    -332.714     138.959
  O      399.787    -330.391     139.208
  H      396.702    -332.644     144.964
  H      399.230    -330.358     138.405
  H      390.879    -334.841     141.549
  H      396.201    -331.660     139.904
  H      394.613    -330.463     143.089
  H      397.027    -332.319     142.720
  H      390.290    -334.258     143.676
  H      398.369    -330.872     143.891
  H      391.202    -333.072     144.537
  H      397.370    -328.503     142.741
  H      398.385    -329.319     140.598
  H      399.453    -329.631     141.974
  P      397.749    -329.986     146.377
  C      398.757    -327.638     146.633
  O      399.023    -329.016     146.464
  O      398.413    -331.438     146.336
  O      396.808    -329.876     147.530
  H      398.291    -331.878     147.201
  H      399.666    -327.075     146.404
  H      398.466    -327.444     147.668
  H      397.954    -327.315     145.958
  H      402.101    -333.373     141.637
  H      400.877    -334.191     140.697
  H      400.440    -333.376     142.180

 3  4  5  6  7  8  9  10  11  12  23  26  30  31 0
 6-311+G(2d,p)
 ****
 33  35  36  37  38 0
 6-311+G(2d,p)
 ****
 1  2  13  14  15  16  17  18  19  20  21  22  24  25 0
 3-21G
 ****
 27  28  29  32  34  39  40  41  42  43  44  45  46  47  48  49 0
 3-21G
 ****


