%nproc=1
%NoSave
%Mem=1900MB
#P OB98/GEN NMR

erre ene a

0 1
  C      624.770       5.528     192.500
  O      625.188       4.295     193.052
  H      625.565       5.909     191.856
  H      624.584       6.252     193.296
  H      623.864       5.397     191.898
  P      624.134       3.427     193.891
  C      623.907       1.521     192.163
  O      623.260       2.599     192.826
  C      622.877       0.588     191.510
  O      622.080       1.367     190.559
  C      623.495      -0.583     190.720
  O      622.565      -1.675     190.796
  C      623.553       0.004     189.323
  O      623.830      -0.966     188.339
  C      622.181       0.688     189.286
  N      621.984       1.632     188.194
  C      620.940       1.380     187.305
  O      620.168       0.420     187.375
  N      620.792       2.289     186.288
  C      621.561       3.403     186.083
  O      621.362       4.195     185.171
  C      622.647       3.609     187.051
  C      622.804       2.738     188.050
  O      623.343       4.174     194.910
  O      625.042       2.292     194.569
  H      625.204       2.518     195.503
  H      623.642      -0.588     187.459
  H      620.042       2.121     185.631
  H      623.283       4.479     186.912
  H      623.599       2.868     188.782
  H      621.384      -0.064     189.262
  H      624.361       0.737     189.264
  H      624.463      -0.907     191.121
  H      622.187       0.229     192.282
  H      624.495       0.962     192.897
  H      624.584       1.924     191.399
  P      622.752      -2.941     191.762
  C      621.020      -2.159     193.534
  O      622.386      -2.480     193.260
  O      624.085      -3.602     191.652
  O      621.571      -3.957     191.385
  H      621.841      -4.869     191.598
  H      620.920      -1.871     194.560
  H      620.407      -3.015     193.343
  H      620.710      -1.351     192.905

 6  7  8  9  10  11  12  13  14  15  16  27  31  32  33  34  35 0
 6-311+G(2d,p)
 ****
 36  37 0
 6-311+G(2d,p)
 ****
 1  2  3  4  5  17  18  19  20  21  22  23  24  25 0
 3-21G
 ****
 26  28  29  30  38  39  40  41  42  43  44  45 0
 3-21G
 ****


