%nproc=1
%NoSave
%Mem=1900MB
#P OB98/GEN NMR

erre ene a

0 1
  C       35.185     124.553     409.049
  O       36.106     125.420     408.417
  P       37.169     126.250     409.275
  C       39.036     124.876     408.192
  O       38.488     125.347     409.416
  C       40.517     125.232     408.070
  O       41.042     124.670     406.833
  C       40.819     126.736     408.055
  O       42.080     126.914     408.711
  C       40.975     127.029     406.570
  O       41.705     128.224     406.315
  C       41.668     125.753     406.111
  N       42.905     127.488     401.465
  C       43.145     127.980     402.699
  N       42.762     127.470     403.888
  C       42.059     126.339     403.716
  C       41.708     125.736     402.520
  C       42.178     126.353     401.347
  N       41.971     125.850     400.081
  N       40.930     124.616     402.752
  C       40.820     124.550     404.063
  N       41.541     125.528     404.688
  O       36.655     126.805     410.564
  O       37.634     127.421     408.291
  H       41.325     128.936     406.862
  H       37.237     128.273     408.572
  H       43.733     128.894     402.741
  H       40.238     123.815     404.608
  H       42.737     125.753     406.357
  H       39.984     127.132     406.110
  H       40.047     127.350     408.527
  H       41.054     124.740     408.893
  H       38.489     125.345     407.371
  H       42.463     126.294     399.326
  H       41.672     124.881     399.980
  H       38.902     123.787     408.118
  P       42.395     128.293     409.470
  C       41.899     127.043     411.650
  O       41.655     128.212     410.884
  O       42.138     129.531     408.680
  O       43.945     128.152     409.866
  H       44.307     129.036     410.077
  H       41.269     126.230     411.284
  H       41.654     127.244     412.699
  H       42.951     126.747     411.587
  H       34.563     124.093     408.310
  H       34.577     125.113     409.728
  H       35.718     123.797     409.587

 3  4  5  6  7  8  9  10  11  12  22  25  29  30  31  32 0
 6-311+G(2d,p)
 ****
 33  36  37 0
 6-311+G(2d,p)
 ****
 1  2  13  14  15  16  17  18  19  20  21  23  24  26 0
 3-21G
 ****
 27  28  34  35  38  39  40  41  42  43  44  45  46  47  48 0
 3-21G
 ****


