%nproc=1
%NoSave
%Mem=1900MB
#P OB98/GEN NMR

erre ene a

0 1
  C      -54.870     -79.845     409.098
  O      -55.946     -80.553     408.515
  H      -55.253     -79.246     409.928
  H      -54.416     -79.174     408.366
  H      -54.113     -80.536     409.486
  P      -55.628     -81.647     407.389
  C      -55.741     -79.912     405.476
  O      -56.277     -81.110     406.024
  C      -55.715     -79.983     403.942
  O      -54.875     -81.105     403.546
  C      -57.101     -80.207     403.297
  O      -57.068     -79.571     402.008
  C      -57.118     -81.722     403.166
  O      -58.164     -82.180     402.356
  C      -55.678     -81.944     402.682
  N      -55.212     -83.326     402.727
  C      -55.134     -84.015     401.519
  O      -55.425     -83.551     400.423
  N      -54.701     -85.314     401.610
  C      -54.330     -85.966     402.747
  O      -53.919     -87.119     402.765
  C      -54.441     -85.185     403.992
  C      -54.865     -83.914     403.922
  O      -55.970     -83.055     407.740
  O      -54.054     -81.472     407.123
  H      -53.564     -82.179     407.581
  H      -57.948     -81.997     401.420
  H      -54.632     -85.829     400.751
  H      -54.170     -85.667     404.920
  H      -54.944     -83.311     404.821
  H      -55.560     -81.556     401.665
  H      -57.276     -82.173     404.149
  H      -57.920     -79.790     403.890
  H      -55.238     -79.073     403.555
  H      -54.721     -79.788     405.857
  H      -56.347     -79.062     405.801
  P      -57.614     -78.084     401.741
  C      -59.955     -78.721     402.657
  O      -59.210     -78.162     401.582
  O      -56.924     -77.377     400.618
  O      -57.411     -77.304     403.127
  H      -57.320     -76.347     402.953
  H      -60.997     -78.708     402.413
  H      -59.789     -78.145     403.543
  H      -59.640     -79.730     402.823

 6  7  8  9  10  11  12  13  14  15  16  27  31  32  33  34  35 0
 6-311+G(2d,p)
 ****
 36  37 0
 6-311+G(2d,p)
 ****
 1  2  3  4  5  17  18  19  20  21  22  23  24  25 0
 3-21G
 ****
 26  28  29  30  38  39  40  41  42  43  44  45 0
 3-21G
 ****


