%nproc=1
%NoSave
%Mem=1900MB
#P OB98/GEN NMR

erre ene a

0 1
  C       24.948    -100.828      -6.693
  O       25.854     -99.939      -7.317
  H       24.035    -100.281      -6.443
  H       25.382    -101.228      -5.773
  H       24.696    -101.648      -7.371
  P       27.305    -100.534      -7.668
  C       27.970     -99.751      -5.269
  O       27.959    -100.801      -6.225
  C       28.874    -100.129      -4.101
  O       28.386    -101.317      -3.442
  C       30.311    -100.448      -4.502
  O       31.090     -99.288      -4.739
  C       30.777    -101.202      -3.270
  O       31.037    -100.268      -2.204
  C       29.534    -102.067      -2.960
  N       29.584    -103.390      -3.584
  C       30.026    -104.447      -2.779
  O       30.360    -104.249      -1.611
  N       30.111    -105.706      -3.328
  C       29.776    -105.895      -4.566
  N       29.894    -107.158      -5.060
  C       29.290    -104.814      -5.443
  C       29.221    -103.603      -4.895
  O       28.119     -99.257      -8.188
  O       27.329    -101.700      -8.598
  H       31.881     -99.827      -2.415
  H       29.070     -99.495      -8.314
  H       29.033    -105.019      -6.473
  H       28.875    -102.759      -5.481
  H       29.407    -102.195      -1.877
  H       31.697    -101.766      -3.435
  H       30.348    -101.127      -5.362
  H       28.838     -99.311      -3.366
  H       30.287    -107.865      -4.454
  H       26.946     -99.592      -4.919
  H       29.831    -107.363      -6.050
  H       28.338     -98.828      -5.729
  P       32.156     -99.338      -5.939
  C       34.007    -100.159      -4.313
  O       33.290    -100.392      -5.516
  O       32.902     -97.929      -5.818
  O       31.565     -99.546      -7.299
  H       33.096     -97.554      -6.698
  H       34.723    -100.941      -4.167
  H       33.325    -100.142      -3.489
  H       34.514     -99.219      -4.376

 6  7  8  9  10  11  12  13  14  15  16  26  30  31  32  33  35 0
 6-311+G(2d,p)
 ****
 37  38 0
 6-311+G(2d,p)
 ****
 1  2  3  4  5  17  18  19  20  21  22  23  24  25 0
 3-21G
 ****
 27  28  29  34  36  39  40  41  42  43  44  45  46 0
 3-21G
 ****


