%nproc=1
%NoSave
%Mem=1900MB
#P OB98/GEN NMR

erre ene a

0 1
  C      163.917      37.403      44.658
  O      164.787      37.637      45.747
  H      164.510      37.073      43.801
  H      163.403      38.330      44.393
  H      163.187      36.626      44.902
  P      164.108      37.809      47.192
  C      164.200      40.400      47.333
  O      163.387      39.245      47.189
  C      163.369      41.661      47.121
  O      162.727      41.630      45.828
  C      162.258      41.861      48.147
  O      162.746      42.469      49.335
  C      161.340      42.805      47.389
  O      161.888      44.142      47.417
  C      161.412      42.241      45.962
  N      156.550      41.494      44.728
  C      157.217      42.666      45.036
  N      156.480      43.797      45.017
  N      158.488      42.724      45.336
  C      159.092      41.512      45.338
  C      158.538      40.283      45.058
  C      157.137      40.235      44.711
  O      156.501      39.225      44.421
  N      159.462      39.277      45.162
  C      160.569      39.895      45.526
  N      160.397      41.251      45.649
  O      165.372      38.020      48.153
  O      163.270      36.660      47.642
  H      161.807      44.463      48.334
  H      165.550      37.186      48.628
  H      155.568      41.505      44.514
  H      161.519      39.409      45.704
  H      161.336      43.027      45.202
  H      160.341      42.863      47.825
  H      155.493      43.821      44.816
  H      161.727      40.924      48.360
  H      156.949      44.668      45.235
  H      164.055      42.518      47.124
  H      165.005      40.364      46.591
  H      164.637      40.404      48.337
  P      162.451      41.744      50.736
  C      160.477      43.348      51.246
  O      160.902      42.002      51.079
  O      163.227      42.674      51.782
  O      162.903      40.327      50.827
  H      163.991      42.192      52.152
  H      159.431      43.367      51.469
  H      160.659      43.894      50.344
  H      161.021      43.797      52.051

 6  7  8  9  10  11  12  13  14  15  26  29  33  34 0
 6-311+G(2d,p)
 ****
 36  38  39  40  41 0
 6-311+G(2d,p)
 ****
 1  2  3  4  5  16  17  18  19  20  21  22  23  24  25 0
 3-21G
 ****
 27  28  30  31  32  35  37  42  43  44  45  46  47 0
 3-21G
 ****
 48  49 0
 3-21G
 ****


