%nproc=1
%NoSave
%Mem=1900MB
#P OB98/GEN NMR

erre ene a

0 1
  C     -895.690     991.765     527.342
  O     -895.350     992.716     528.343
  P     -896.520     993.720     528.813
  C     -894.780     995.433     529.724
  O     -895.900     994.619     530.000
  C     -894.200     995.985     531.018
  O     -895.120     996.870     531.640
  C     -893.870     994.926     532.067
  O     -892.710     994.193     531.745
  C     -893.780     995.785     533.322
  O     -892.490     996.444     533.359
  C     -894.900     996.829     533.077
  N     -897.420     996.939     537.538
  C     -896.180     997.336     537.190
  N     -895.550     997.257     535.984
  C     -896.370     996.721     535.094
  C     -897.680     996.240     535.277
  C     -898.190     996.369     536.564
  N     -899.470     995.982     536.917
  N     -898.180     995.728     534.109
  C     -897.230     995.871     533.226
  N     -896.140     996.478     533.753
  O     -897.540     992.747     529.565
  O     -897.180     994.505     527.712
  H     -892.510     997.161     532.680
  H     -898.470     993.046     529.448
  H     -895.580     997.791     538.000
  H     -897.300     995.586     532.176
  H     -894.590     997.826     533.403
  H     -893.880     995.195     534.250
  H     -894.720     994.213     532.172
  H     -893.260     996.544     530.768
  H     -895.090     996.282     529.072
  H     -899.720     995.976     537.898
  H     -900.000     995.448     536.236
  H     -894.040     994.849     529.152
  P     -892.800     992.609     531.697
  C     -890.960     992.557     533.482
  O     -891.370     992.110     532.214
  O     -892.760     992.303     530.116
  O     -893.980     992.039     532.442
  H     -892.010     992.785     529.702
  H     -889.980     992.129     533.720
  H     -891.680     992.251     534.249
  H     -890.840     993.650     533.492
  H     -894.835     991.162     527.118
  H     -896.007     992.276     526.457
  H     -896.483     991.141     527.697

 3  4  5  6  7  8  9  10  11  12  22  25  29  30  31  32 0
 6-311+G(2d,p)
 ****
 33  36  37 0
 6-311+G(2d,p)
 ****
 1  2  13  14  15  16  17  18  19  20  21  23  24  26 0
 3-21G
 ****
 27  28  34  35  38  39  40  41  42  43  44  45  46  47  48 0
 3-21G
 ****


