%nproc=1
%NoSave
%Mem=1900MB
#P OB98/GEN NMR

erre ene a

0 1
  C       52.504    -463.516    -211.678
  O       51.522    -463.824    -212.673
  P       51.717    -465.183    -213.505
  C       51.978    -463.637    -215.596
  O       51.411    -464.808    -215.037
  C       51.906    -463.676    -217.129
  O       52.883    -464.630    -217.645
  C       50.532    -464.068    -217.689
  O       50.327    -463.284    -218.875
  C       50.712    -465.532    -218.045
  O       49.763    -465.964    -219.012
  C       52.170    -465.528    -218.520
  N       52.766    -466.861    -218.522
  C       53.373    -467.275    -219.702
  O       53.353    -466.610    -220.737
  N       53.965    -468.511    -219.668
  C       53.944    -469.377    -218.614
  O       54.491    -470.476    -218.638
  C       53.190    -468.932    -217.435
  C       52.644    -467.713    -217.445
  O       50.441    -466.024    -213.039
  O       53.037    -465.836    -213.254
  H       49.645    -465.483    -212.905
  H       50.093    -466.782    -219.440
  H       54.438    -468.818    -220.502
  H       53.097    -469.617    -216.602
  H       52.063    -467.363    -216.601
  H       52.237    -465.116    -219.536
  H       50.601    -466.149    -217.147
  H       49.718    -463.887    -216.982
  H       52.189    -462.686    -217.506
  H       53.030    -463.553    -215.297
  H       51.462    -462.758    -215.197
  P       49.695    -461.813    -218.716
  C       47.729    -462.029    -220.430
  O       48.971    -461.458    -220.102
  O       51.034    -460.929    -218.770
  O       48.907    -461.593    -217.468
  H       51.630    -461.179    -219.499
  H       47.308    -461.488    -221.283
  H       47.030    -461.960    -219.596
  H       47.864    -463.078    -220.716
  H       52.253    -462.590    -211.204
  H       53.465    -463.431    -212.140
  H       52.527    -464.296    -210.946

 3  4  5  6  7  8  9  10  11  12  13  24  28  29  30  31  32 0
 6-311+G(2d,p)
 ****
 33  34 0
 6-311+G(2d,p)
 ****
 1  2  14  15  16  17  18  19  20  21  22  23  25  26  27 0
 3-21G
 ****
 35  36  37  38  39  40  41  42  43  44  45 0
 3-21G
 ****


