%nproc=1
%NoSave
%Mem=1900MB
#P OB98/GEN NMR

erre ene a

0 1
  C     -214.392     180.956    -772.550
  O     -213.162     180.310    -772.288
  P     -212.687     180.057    -770.774
  C     -211.999     177.572    -770.970
  O     -211.542     178.925    -770.882
  C     -210.839     176.638    -771.315
  O     -210.437     176.817    -772.686
  C     -209.585     176.863    -770.482
  O     -209.734     176.299    -769.190
  C     -208.533     176.184    -771.346
  O     -208.506     174.764    -771.130
  C     -209.025     176.508    -772.779
  N     -208.278     177.598    -773.389
  C     -207.171     177.222    -774.163
  O     -206.861     176.033    -774.269
  N     -206.419     178.202    -774.756
  C     -206.721     179.447    -774.575
  N     -205.927     180.377    -775.178
  C     -207.858     179.887    -773.743
  C     -208.586     178.924    -773.190
  O     -213.776     179.780    -769.797
  O     -211.840     181.376    -770.434
  H     -209.426     174.455    -771.246
  H     -212.436     182.153    -770.282
  H     -208.075     180.946    -773.614
  H     -209.438     179.155    -772.559
  H     -208.938     175.628    -773.426
  H     -207.523     176.556    -771.138
  H     -209.374     177.932    -770.420
  H     -211.188     175.603    -771.195
  H     -205.137     180.028    -775.720
  H     -212.755     177.517    -771.755
  H     -206.056     181.369    -775.081
  H     -212.461     177.284    -770.020
  P     -208.829     176.824    -767.979
  C     -210.264     175.981    -766.024
  O     -209.047     175.835    -766.738
  O     -208.949     178.282    -767.672
  O     -207.335     176.473    -768.464
  H     -206.754     177.244    -768.273
  H     -210.435     175.079    -765.440
  H     -211.101     176.148    -766.704
  H     -210.173     176.835    -765.335
  H     -214.536     181.034    -773.607
  H     -214.380     181.935    -772.118
  H     -215.191     180.388    -772.122

 3  4  5  6  7  8  9  10  11  12  13  23  27  28  29  30  32 0
 6-311+G(2d,p)
 ****
 34  35 0
 6-311+G(2d,p)
 ****
 1  2  14  15  16  17  18  19  20  21  22  24  25  26 0
 3-21G
 ****
 31  33  36  37  38  39  40  41  42  43  44  45  46 0
 3-21G
 ****


