%nproc=1
%NoSave
%Mem=1900MB
#P OB98/GEN NMR

erre ene a

0 1
  C     -166.550    1212.574    -226.919
  O     -166.805    1211.247    -226.503
  H     -167.428    1213.183    -226.707
  H     -166.355    1212.616    -227.993
  H     -165.695    1212.998    -226.368
  P     -165.627    1210.163    -226.615
  C     -164.810    1210.531    -224.209
  O     -165.371    1209.605    -225.123
  C     -164.737    1209.937    -222.817
  O     -166.073    1209.798    -222.294
  C     -164.082    1208.541    -222.774
  O     -163.302    1208.442    -221.584
  C     -165.270    1207.596    -222.680
  O     -164.928    1206.364    -222.066
  C     -166.273    1208.418    -221.898
  N     -169.914    1205.161    -220.565
  C     -168.671    1205.365    -220.032
  N     -168.299    1204.560    -218.995
  N     -167.820    1206.282    -220.468
  C     -168.318    1207.022    -221.503
  C     -169.532    1206.902    -222.120
  C     -170.442    1205.888    -221.632
  O     -171.575    1205.650    -222.091
  N     -169.646    1207.820    -223.142
  C     -168.484    1208.472    -223.129
  N     -167.644    1208.005    -222.160
  O     -164.396    1210.616    -227.330
  O     -166.319    1208.919    -227.353
  H     -165.693    1205.759    -222.183
  H     -166.088    1208.896    -228.295
  H     -170.524    1204.441    -220.208
  H     -168.239    1209.280    -223.799
  H     -166.139    1208.351    -220.791
  H     -165.636    1207.385    -223.699
  H     -168.890    1203.841    -218.612
  H     -163.446    1208.342    -223.650
  H     -167.398    1204.701    -218.584
  H     -164.209    1210.637    -222.150
  H     -165.430    1211.427    -224.196
  H     -163.800    1210.819    -224.543
  P     -161.839    1207.812    -221.644
  C     -160.811    1209.626    -220.099
  O     -161.046    1208.215    -220.314
  O     -161.081    1208.081    -222.926
  O     -162.086    1206.244    -221.439
  H     -161.409    1205.748    -221.909
  H     -160.276    1209.763    -219.183
  H     -161.748    1210.139    -220.045
  H     -160.235    1210.019    -220.911

 6  7  8  9  10  11  12  13  14  15  26  29  33  34 0
 6-311+G(2d,p)
 ****
 36  38  39  40  41 0
 6-311+G(2d,p)
 ****
 1  2  3  4  5  16  17  18  19  20  21  22  23  24  25 0
 3-21G
 ****
 27  28  30  31  32  35  37  42  43  44  45  46  47 0
 3-21G
 ****
 48  49 0
 3-21G
 ****


