%nproc=1
%NoSave
%Mem=1900MB
#P OB98/GEN NMR

erre ene a

0 1
  C      265.631    -829.315     568.482
  O      266.546    -829.927     569.401
  P      268.121    -829.809     569.091
  C      267.986    -832.105     567.862
  O      268.451    -830.754     567.841
  C      268.898    -832.994     567.008
  O      268.801    -832.660     565.608
  C      270.377    -832.878     567.361
  O      270.710    -833.695     568.475
  C      271.022    -833.430     566.105
  O      270.986    -834.863     566.120
  C      270.095    -832.882     565.000
  N      273.850    -830.739     562.372
  C      273.681    -832.048     562.789
  N      274.670    -832.920     562.451
  N      272.659    -832.470     563.475
  C      271.753    -831.500     563.727
  C      271.806    -830.170     563.379
  C      272.949    -829.714     562.627
  O      273.165    -828.562     562.242
  N      270.695    -829.487     563.820
  C      269.961    -830.407     564.430
  N      270.579    -831.640     564.414
  O      268.772    -830.596     570.324
  O      268.619    -828.407     569.003
  H      270.064    -835.137     565.950
  H      269.667    -830.253     570.496
  H      274.660    -830.461     561.851
  H      269.002    -830.232     564.888
  H      269.962    -833.603     564.188
  H      272.071    -833.137     566.013
  H      275.459    -832.677     561.870
  H      270.665    -831.824     567.518
  H      274.546    -833.889     562.711
  H      268.572    -834.044     567.147
  H      266.952    -832.158     567.500
  H      267.949    -832.444     568.904
  P      270.286    -833.174     569.941
  C      272.294    -831.627     570.565
  O      270.957    -831.728     570.099
  O      271.152    -834.107     570.909
  O      268.830    -833.257     570.244
  H      270.676    -834.251     571.750
  H      272.629    -830.599     570.464
  H      272.954    -832.283     569.992
  H      272.341    -831.908     571.636
  H      264.628    -829.476     568.817
  H      265.756    -829.749     567.512
  H      265.826    -828.264     568.431

 3  4  5  6  7  8  9  10  11  12  23  26  30  31 0
 6-311+G(2d,p)
 ****
 33  35  36  37  38 0
 6-311+G(2d,p)
 ****
 1  2  13  14  15  16  17  18  19  20  21  22  24  25 0
 3-21G
 ****
 27  28  29  32  34  39  40  41  42  43  44  45  46  47  48  49 0
 3-21G
 ****


