%nproc=1
%NoSave
%Mem=1900MB
#P OB98/GEN NMR

erre ene a

0 1
  C     -102.756    -464.351    -539.315
  O     -103.484    -463.129    -539.184
  P     -104.802    -462.902    -540.079
  C     -103.865    -460.813    -541.234
  O     -104.920    -461.344    -540.447
  C     -103.780    -459.276    -541.146
  O     -105.088    -458.681    -541.427
  C     -103.337    -458.740    -539.781
  O     -102.542    -457.569    -540.032
  C     -104.649    -458.377    -539.111
  O     -104.477    -457.481    -538.021
  C     -105.416    -457.815    -540.317
  N     -106.852    -457.764    -540.081
  C     -107.388    -456.548    -539.647
  O     -106.642    -455.609    -539.372
  N     -108.745    -456.448    -539.496
  C     -109.487    -457.509    -539.641
  N     -110.843    -457.357    -539.504
  C     -108.943    -458.849    -539.919
  C     -107.635    -458.895    -540.163
  O     -106.057    -463.526    -539.543
  O     -104.395    -463.565    -541.488
  H     -105.356    -457.266    -537.635
  H     -105.189    -463.978    -541.888
  H     -109.588    -459.719    -539.942
  H     -107.128    -459.824    -540.380
  H     -105.063    -456.806    -540.571
  H     -105.133    -459.290    -538.729
  H     -102.735    -459.461    -539.209
  H     -103.091    -458.918    -541.924
  H     -111.207    -456.448    -539.284
  H     -104.011    -461.101    -542.278
  H     -111.481    -458.122    -539.636
  H     -102.905    -461.268    -540.924
  P     -100.968    -457.604    -539.727
  C     -100.965    -455.455    -538.266
  O     -100.492    -456.115    -539.422
  O     -100.354    -457.865    -541.196
  O     -100.509    -458.684    -538.797
  H      -99.481    -458.292    -541.096
  H     -100.331    -454.577    -538.070
  H     -100.942    -456.111    -537.393
  H     -101.994    -455.113    -538.432
  H     -101.915    -464.338    -538.654
  H     -102.415    -464.457    -540.324
  H     -103.393    -465.174    -539.066

 3  4  5  6  7  8  9  10  11  12  13  23  27  28  29  30  32 0
 6-311+G(2d,p)
 ****
 34  35 0
 6-311+G(2d,p)
 ****
 1  2  14  15  16  17  18  19  20  21  22  24  25  26 0
 3-21G
 ****
 31  33  36  37  38  39  40  41  42  43  44  45  46 0
 3-21G
 ****


