%nproc=1
%NoSave
%Mem=1900MB
#P OB98/GEN NMR

erre ene a

0 1
  C      -44.988     -19.950     -20.023
  O      -44.902     -19.993     -21.433
  H      -44.889     -18.921     -19.666
  H      -45.963     -20.338     -19.719
  H      -44.206     -20.575     -19.581
  P      -43.578     -19.363     -22.084
  C      -42.232     -17.186     -21.684
  O      -43.474     -17.858     -21.537
  C      -42.280     -15.834     -20.983
  O      -43.321     -15.014     -21.552
  C      -42.588     -15.899     -19.492
  O      -41.446     -16.260     -18.728
  C      -43.006     -14.459     -19.229
  O      -41.835     -13.634     -19.084
  C      -43.752     -14.089     -20.520
  N      -48.229     -13.586     -22.984
  C      -46.949     -13.449     -23.401
  N      -45.812     -13.586     -22.691
  C      -46.083     -13.916     -21.417
  C      -47.333     -14.091     -20.848
  C      -48.444     -13.905     -21.688
  N      -49.744     -14.031     -21.249
  N      -47.220     -14.439     -19.520
  C      -45.924     -14.475     -19.287
  N      -45.195     -14.159     -20.403
  O      -43.976     -19.169     -23.625
  O      -42.342     -20.186     -21.940
  H      -41.396     -13.615     -19.955
  H      -43.191     -19.340     -24.178
  H      -46.822     -13.198     -24.452
  H      -45.473     -14.728     -18.336
  H      -43.486     -13.083     -20.863
  H      -43.602     -14.344     -18.321
  H      -43.434     -16.564     -19.290
  H      -41.321     -15.328     -21.160
  H      -42.024     -17.032     -22.748
  H      -50.481     -14.082     -21.931
  H      -49.895     -14.279     -20.277
  H      -41.441     -17.810     -21.255
  P      -41.650     -17.342     -17.558
  C      -43.127     -17.426     -15.427
  O      -42.578     -16.622     -16.465
  O      -40.215     -17.385     -16.852
  O      -42.088     -18.691     -18.012
  H      -40.088     -18.248     -16.411
  H      -43.719     -16.815     -14.778
  H      -42.334     -17.877     -14.868
  H      -43.741     -18.191     -15.855

 6  7  8  9  10  11  12  13  14  15  25  28  32  33  34  35 0
 6-311+G(2d,p)
 ****
 36  39  40 0
 6-311+G(2d,p)
 ****
 1  2  3  4  5  16  17  18  19  20  21  22  23  24 0
 3-21G
 ****
 26  27  29  30  31  37  38  41  42  43  44  45  46  47  48 0
 3-21G
 ****


