%nproc=1
%NoSave
%Mem=1900MB
#P OB98/GEN NMR

erre ene a

0 1
  C      148.713     615.557      49.644
  O      149.058     614.273      49.170
  H      148.446     616.180      48.785
  H      149.566     616.008      50.147
  H      147.858     615.514      50.321
  P      149.208     613.073      50.228
  C      147.381     611.885      48.852
  O      147.851     612.223      50.148
  C      146.491     610.642      48.896
  O      147.276     609.516      49.395
  C      145.270     610.784      49.809
  O      144.224     609.975      49.268
  C      145.775     610.178      51.108
  O      144.716     609.833      51.975
  C      146.606     609.008      50.568
  N      147.548     608.487      51.557
  C      147.044     607.583      52.486
  O      145.853     607.252      52.516
  N      147.929     607.113      53.411
  C      149.237     607.487      53.536
  O      149.974     607.050      54.405
  C      149.710     608.478      52.548
  C      148.854     608.923      51.622
  O      149.613     613.479      51.608
  O      150.280     612.088      49.562
  H      144.258     610.645      52.291
  H      150.783     611.621      50.251
  H      147.573     606.446      54.089
  H      150.732     608.807      52.627
  H      149.175     609.650      50.884
  H      145.960     608.183      50.252
  H      146.411     610.890      51.644
  H      144.936     611.812      49.933
  H      146.190     610.385      47.869
  H      148.254     611.696      48.213
  H      146.816     612.724      48.435
  P      142.689     610.456      49.248
  C      141.983     609.544      46.946
  O      142.240     610.703      47.733
  O      142.395     611.593      50.176
  O      141.848     609.155      49.669
  H      141.020     609.426      50.111
  H      141.693     609.840      45.959
  H      141.195     608.976      47.394
  H      142.868     608.945      46.893

 6  7  8  9  10  11  12  13  14  15  16  26  31  32  33  34  35 0
 6-311+G(2d,p)
 ****
 36  37 0
 6-311+G(2d,p)
 ****
 1  2  3  4  5  17  18  19  20  21  22  23  24  25 0
 3-21G
 ****
 27  28  29  30  38  39  40  41  42  43  44  45 0
 3-21G
 ****


