%nproc=1
%NoSave
%Mem=1900MB
#P OB98/GEN NMR

erre ene a

0 1
  C     -218.525     -77.662      22.105
  O     -217.179     -77.611      22.589
  P     -216.741     -76.317      23.432
  C     -216.533     -77.442      25.763
  O     -215.866     -76.794      24.690
  C     -215.537     -78.118      26.717
  O     -214.806     -79.176      26.036
  C     -214.491     -77.156      27.289
  O     -214.115     -77.623      28.591
  C     -213.317     -77.346      26.348
  O     -212.096     -76.883      26.926
  C     -213.401     -78.852      26.104
  N     -208.896     -79.279      23.877
  C     -209.231     -78.791      25.126
  N     -208.207     -78.391      25.909
  N     -210.459     -78.706      25.567
  C     -211.375     -79.177      24.686
  C     -211.171     -79.678      23.421
  C     -209.809     -79.743      22.936
  O     -209.456     -80.154      21.835
  N     -212.356     -80.032      22.825
  C     -213.272     -79.740      23.729
  N     -212.724     -79.254      24.886
  O     -218.119     -75.841      24.098
  O     -216.139     -75.232      22.603
  H     -212.005     -77.317      27.802
  H     -218.426     -75.024      23.668
  H     -207.936     -79.313      23.584
  H     -214.337     -79.858      23.598
  H     -212.955     -79.432      26.922
  H     -213.490     -76.787      25.419
  H     -207.236     -78.478      25.650
  H     -214.814     -76.114      27.359
  H     -208.419     -78.068      26.844
  H     -216.098     -78.584      27.533
  H     -217.228     -78.192      25.375
  H     -217.152     -76.709      26.288
  P     -214.500     -76.692      29.836
  C     -217.002     -77.378      29.917
  O     -215.740     -77.399      30.558
  O     -215.150     -75.399      29.151
  O     -213.352     -76.338      30.727
  H     -215.062     -74.625      29.737
  H     -217.193     -78.360      29.475
  H     -217.053     -76.612      29.136
  H     -217.772     -77.170      30.664
  H     -218.676     -78.573      21.565
  H     -218.703     -76.830      21.457
  H     -219.203     -77.621      22.932

 3  4  5  6  7  8  9  10  11  12  23  26  30  31 0
 6-311+G(2d,p)
 ****
 33  35  36  37  38 0
 6-311+G(2d,p)
 ****
 1  2  13  14  15  16  17  18  19  20  21  22  24  25 0
 3-21G
 ****
 27  28  29  32  34  39  40  41  42  43  44  45  46  47  48  49 0
 3-21G
 ****


