%nproc=1
%NoSave
%Mem=1900MB
#P OB98/GEN NMR

erre ene a

0 1
  C     -180.098     397.076      45.272
  O     -179.960     398.305      45.958
  P     -180.750     398.567      47.327
  C     -179.065     397.656      49.052
  O     -180.267     397.408      48.327
  C     -179.334     397.692      50.557
  O     -179.969     398.930      50.929
  C     -180.261     396.586      51.048
  O     -179.563     395.356      51.136
  C     -180.711     397.156      52.385
  O     -179.741     396.905      53.414
  C     -180.803     398.666      52.078
  N     -182.175     399.110      51.864
  C     -182.783     399.756      52.946
  O     -182.178     399.893      54.010
  N     -184.081     400.187      52.812
  C     -184.719     399.967      51.701
  N     -186.005     400.407      51.634
  C     -184.122     399.262      50.551
  C     -182.862     398.863      50.700
  O     -182.227     398.722      47.191
  O     -180.028     399.871      47.917
  H     -180.066     397.366      54.212
  H     -180.291     400.685      47.422
  H     -184.696     399.093      49.652
  H     -182.349     398.336      49.906
  H     -180.381     399.253      52.905
  H     -181.657     396.718      52.720
  H     -181.122     396.497      50.376
  H     -178.368     397.635      51.076
  H     -186.386     400.858      52.455
  H     -178.665     398.624      48.734
  H     -186.601     400.258      50.836
  H     -178.326     396.883      48.807
  P     -180.380     393.984      51.255
  C     -180.637     393.657      48.724
  O     -181.306     393.850      49.955
  O     -181.078     393.766      52.558
  O     -179.262     392.864      51.019
  H     -179.382     392.152      51.676
  H     -181.348     393.255      47.997
  H     -179.805     392.953      48.835
  H     -180.259     394.614      48.359
  H     -179.497     397.092      44.387
  H     -181.124     396.930      45.004
  H     -179.778     396.276      45.906

 3  4  5  6  7  8  9  10  11  12  13  23  27  28  29  30  32 0
 6-311+G(2d,p)
 ****
 34  35 0
 6-311+G(2d,p)
 ****
 1  2  14  15  16  17  18  19  20  21  22  24  25  26 0
 3-21G
 ****
 31  33  36  37  38  39  40  41  42  43  44  45  46 0
 3-21G
 ****


