%nproc=1
%NoSave
%Mem=1900MB
#P OB98/GEN NMR

erre ene a

0 1
  C     -426.816     -51.702     541.010
  O     -426.126     -51.971     539.808
  H     -426.497     -50.730     541.387
  H     -426.593     -52.468     541.763
  H     -427.898     -51.674     540.828
  P     -426.327     -53.396     539.108
  C     -426.572     -53.897     536.574
  O     -425.818     -53.242     537.596
  C     -426.167     -53.390     535.183
  O     -426.694     -52.030     535.014
  C     -424.645     -53.319     534.970
  O     -424.398     -53.532     533.564
  C     -424.348     -51.874     535.354
  O     -423.071     -51.482     534.927
  C     -425.558     -51.172     534.724
  N     -425.759     -49.822     535.257
  C     -424.833     -48.859     534.848
  O     -423.912     -49.174     534.089
  N     -424.954     -47.583     535.324
  C     -425.882     -47.303     536.188
  N     -425.939     -46.022     536.634
  C     -426.848     -48.317     536.700
  C     -426.730     -49.541     536.198
  O     -427.683     -54.006     539.251
  O     -425.205     -54.324     539.774
  H     -422.377     -52.083     535.280
  H     -425.612     -54.929     540.422
  H     -427.586     -48.032     537.438
  H     -427.383     -50.342     536.508
  H     -425.451     -51.113     533.644
  H     -424.365     -51.757     536.446
  H     -424.094     -54.049     535.561
  H     -426.649     -54.010     534.424
  H     -425.267     -45.368     536.264
  H     -427.626     -53.672     536.765
  H     -426.611     -45.683     537.330
  H     -426.427     -54.975     536.631
  P     -423.629     -54.814     533.007
  C     -424.002     -56.418     531.004
  O     -424.053     -55.063     531.477
  O     -423.749     -56.032     533.871
  O     -422.089     -54.357     532.887
  H     -421.520     -55.138     533.025
  H     -424.306     -56.449     529.978
  H     -424.660     -57.025     531.590
  H     -423.002     -56.789     531.092

 6  7  8  9  10  11  12  13  14  15  16  26  30  31  32  33  35 0
 6-311+G(2d,p)
 ****
 37  38 0
 6-311+G(2d,p)
 ****
 1  2  3  4  5  17  18  19  20  21  22  23  24  25 0
 3-21G
 ****
 27  28  29  34  36  39  40  41  42  43  44  45  46 0
 3-21G
 ****


