%nproc=1
%NoSave
%Mem=1900MB
#P OB98/GEN NMR

erre ene a

0 1
  C      -55.435    -197.114      43.284
  O      -55.066    -195.905      43.915
  H      -54.619    -197.833      43.399
  H      -55.610    -196.954      42.217
  H      -56.334    -197.529      43.751
  P      -56.068    -194.655      43.837
  C      -55.774    -194.213      41.309
  O      -56.662    -194.626      42.344
  C      -56.446    -193.138      40.439
  O      -57.350    -193.809      39.523
  C      -57.259    -192.130      41.272
  O      -56.910    -190.774      40.999
  C      -58.702    -192.561      41.026
  O      -59.654    -191.533      41.174
  C      -58.645    -193.189      39.627
  N      -59.703    -194.166      39.373
  C      -60.799    -193.742      38.619
  O      -60.936    -192.618      38.141
  N      -61.775    -194.689      38.413
  C      -61.770    -195.968      38.885
  O      -62.675    -196.770      38.661
  C      -60.602    -196.344      39.697
  C      -59.639    -195.443      39.904
  O      -55.513    -193.354      44.311
  O      -57.329    -195.110      44.716
  H      -60.536    -191.925      40.996
  H      -57.315    -194.645      45.574
  H      -62.564    -194.398      37.855
  H      -60.575    -197.353      40.098
  H      -58.763    -195.688      40.496
  H      -58.718    -192.417      38.858
  H      -58.956    -193.343      41.755
  H      -57.033    -192.238      42.342
  H      -55.675    -192.637      39.841
  H      -55.532    -195.089      40.703
  H      -54.856    -193.811      41.751
  P      -56.104    -189.815      41.990
  C      -57.969    -188.617      43.414
  O      -56.964    -189.623      43.326
  O      -55.527    -188.582      41.376
  O      -54.869    -190.731      42.487
  H      -54.119    -190.122      42.643
  H      -58.425    -188.652      44.381
  H      -58.712    -188.788      42.663
  H      -57.525    -187.655      43.264

 6  7  8  9  10  11  12  13  14  15  16  26  31  32  33  34  35 0
 6-311+G(2d,p)
 ****
 36  37 0
 6-311+G(2d,p)
 ****
 1  2  3  4  5  17  18  19  20  21  22  23  24  25 0
 3-21G
 ****
 27  28  29  30  38  39  40  41  42  43  44  45 0
 3-21G
 ****


