%nproc=1
%NoSave
%Mem=1900MB
#P OB98/GEN NMR

erre ene a

0 1
  C     -145.170     117.065    -109.298
  O     -146.580     116.955    -109.100
  P     -147.282     117.834    -107.961
  C     -149.026     118.837    -109.576
  O     -148.807     118.108    -108.379
  C     -150.472     119.350    -109.658
  O     -151.313     118.343    -110.280
  C     -151.067     119.679    -108.282
  O     -151.653     120.979    -108.222
  C     -152.006     118.516    -108.014
  O     -153.036     118.835    -107.090
  C     -152.445     118.103    -109.423
  N     -152.892     116.708    -109.472
  C     -154.080     116.410    -108.815
  O     -154.709     117.235    -108.154
  N     -154.501     115.109    -108.891
  C     -153.819     114.084    -109.477
  O     -154.215     112.925    -109.479
  C     -152.536     114.446    -110.101
  C     -152.141     115.719    -110.068
  O     -146.526     119.041    -107.512
  O     -147.443     116.788    -106.751
  H     -153.685     118.098    -107.084
  H     -147.269     117.265    -105.916
  H     -155.370     114.882    -108.435
  H     -151.957     113.655    -110.557
  H     -151.194     116.011    -110.507
  H     -153.278     118.722    -109.771
  H     -151.422     117.697    -107.573
  H     -150.293     119.704    -107.507
  H     -150.467     120.238    -110.295
  H     -148.831     118.192    -110.435
  H     -148.301     119.656    -109.639
  P     -150.859     122.316    -107.848
  C     -152.211     124.021    -109.256
  O     -151.870     123.552    -107.967
  O     -149.549     122.509    -108.534
  O     -150.637     122.173    -106.267
  H     -149.744     122.489    -106.038
  H     -152.581     125.046    -109.168
  H     -153.007     123.394    -109.671
  H     -151.349     124.013    -109.926
  H     -144.869     116.414    -110.092
  H     -144.661     116.789    -108.398
  H     -144.923     118.075    -109.552

 3  4  5  6  7  8  9  10  11  12  13  23  28  29  30  31  32 0
 6-311+G(2d,p)
 ****
 33  34 0
 6-311+G(2d,p)
 ****
 1  2  14  15  16  17  18  19  20  21  22  24  25  26  27 0
 3-21G
 ****
 35  36  37  38  39  40  41  42  43  44  45 0
 3-21G
 ****


