%nproc=1
%NoSave
%Mem=1900MB
#P OB98/GEN NMR

erre ene a

0 1
  C     -675.662    -767.560    1481.331
  O     -675.858    -766.308    1480.673
  P     -675.364    -764.888    1481.193
  C     -677.240    -763.831    1482.738
  O     -676.638    -763.957    1481.454
  C     -678.359    -762.789    1482.741
  O     -677.835    -761.501    1482.346
  C     -679.488    -763.128    1481.748
  O     -680.799    -762.911    1482.248
  C     -679.104    -762.359    1480.484
  O     -680.143    -762.138    1479.593
  C     -678.454    -761.110    1481.120
  N     -675.769    -756.898    1479.926
  C     -676.741    -757.076    1480.897
  N     -677.058    -755.977    1481.642
  N     -677.369    -758.211    1481.112
  C     -677.010    -759.172    1480.230
  C     -676.075    -759.122    1479.243
  C     -675.343    -757.896    1479.052
  O     -674.482    -757.673    1478.205
  N     -675.965    -760.339    1478.585
  C     -676.853    -761.107    1479.179
  N     -677.514    -760.433    1480.206
  O     -674.233    -764.282    1480.451
  O     -674.856    -765.186    1482.709
  H     -680.506    -763.039    1479.319
  H     -674.122    -764.562    1482.868
  H     -675.300    -756.023    1479.813
  H     -677.064    -762.137    1478.928
  H     -679.195    -760.331    1481.340
  H     -678.315    -762.945    1479.958
  H     -676.715    -755.041    1481.450
  H     -679.494    -764.215    1481.509
  H     -677.931    -756.064    1482.183
  H     -678.753    -762.716    1483.782
  H     -676.425    -763.512    1483.410
  H     -677.592    -764.814    1483.080
  P     -681.677    -763.827    1483.234
  C     -682.663    -765.115    1481.230
  O     -682.948    -764.372    1482.469
  O     -682.336    -762.785    1484.304
  O     -680.879    -764.885    1483.976
  H     -681.996    -762.984    1485.201
  H     -683.608    -765.195    1480.670
  H     -682.303    -766.114    1481.519
  H     -681.918    -764.593    1480.638
  H     -676.102    -768.342    1480.748
  H     -676.123    -767.532    1482.296
  H     -674.614    -767.744    1481.442

 3  4  5  6  7  8  9  10  11  12  23  26  30  31 0
 6-311+G(2d,p)
 ****
 33  35  36  37  38 0
 6-311+G(2d,p)
 ****
 1  2  13  14  15  16  17  18  19  20  21  22  24  25 0
 3-21G
 ****
 27  28  29  32  34  39  40  41  42  43  44  45  46  47  48  49 0
 3-21G
 ****


