%nproc=1
%NoSave
%Mem=1900MB
#P OB98/GEN NMR

erre ene a

0 1
  C      501.049     196.967     610.796
  O      501.921     195.926     611.182
  H      501.147     197.118     609.718
  H      501.328     197.893     611.307
  H      500.011     196.718     611.022
  P      501.754     195.279     612.635
  C      503.354     196.904     613.849
  O      503.114     195.564     613.438
  C      504.340     196.943     615.022
  O      503.779     196.206     616.140
  C      505.668     196.263     614.665
  O      506.763     196.799     615.404
  C      505.437     194.824     615.101
  O      506.649     194.114     615.356
  C      504.563     195.018     616.341
  N      504.028     190.537     618.714
  C      505.167     191.297     618.518
  N      506.312     190.793     619.034
  N      505.187     192.424     617.869
  C      503.981     192.772     617.350
  C      502.786     192.101     617.453
  C      502.772     190.861     618.207
  O      501.797     190.144     618.387
  N      501.782     192.759     616.788
  C      502.369     193.820     616.280
  N      503.696     193.892     616.616
  O      501.845     193.702     612.358
  O      500.496     195.640     613.365
  H      507.164     194.635     615.997
  H      501.416     193.208     613.081
  H      504.065     189.690     619.249
  H      501.871     194.574     615.681
  H      505.189     195.184     617.230
  H      504.919     194.302     614.289
  H      506.373     189.839     619.363
  H      505.898     196.318     613.605
  H      507.187     191.161     618.648
  H      504.478     197.974     615.362
  H      502.389     197.325     614.140
  H      503.729     197.498     613.011
  P      507.576     198.032     614.779
  C      509.550     196.428     614.026
  O      509.118     197.634     614.615
  O      507.586     199.114     615.964
  O      506.994     198.583     613.519
  H      507.084     199.905     615.693
  H      510.619     196.392     614.031
  H      509.196     196.377     613.017
  H      509.162     195.600     614.582

 6  7  8  9  10  11  12  13  14  15  26  29  33  34 0
 6-311+G(2d,p)
 ****
 36  38  39  40  41 0
 6-311+G(2d,p)
 ****
 1  2  3  4  5  16  17  18  19  20  21  22  23  24  25 0
 3-21G
 ****
 27  28  30  31  32  35  37  42  43  44  45  46  47 0
 3-21G
 ****
 48  49 0
 3-21G
 ****


