%nproc=1
%NoSave
%Mem=1900MB
#P OB98/GEN NMR

erre ene a

0 1
  C     -392.333    -578.018     348.163
  O     -391.384    -578.118     349.209
  H     -392.101    -578.781     347.412
  H     -392.255    -577.031     347.700
  H     -393.349    -578.180     348.530
  P     -391.721    -577.452     350.624
  C     -389.942    -575.607     350.347
  O     -390.405    -576.696     351.137
  C     -388.413    -575.470     350.395
  O     -387.999    -575.062     351.715
  C     -387.696    -576.804     350.120
  O     -387.518    -577.112     348.752
  C     -386.366    -576.586     350.823
  O     -385.441    -575.901     349.958
  C     -386.742    -575.695     352.011
  N     -384.564    -576.904     356.481
  C     -384.060    -576.134     355.445
  N     -382.791    -575.683     355.593
  N     -384.729    -575.858     354.354
  C     -385.951    -576.457     354.309
  C     -386.551    -577.248     355.261
  C     -385.817    -577.502     356.485
  O     -386.211    -578.182     357.433
  N     -387.788    -577.668     354.849
  C     -387.903    -577.202     353.628
  N     -386.821    -576.439     353.263
  O     -391.816    -578.707     351.621
  O     -392.985    -576.639     350.659
  H     -385.099    -576.540     349.307
  H     -392.397    -578.491     352.374
  H     -384.008    -577.058     357.309
  H     -388.765    -577.365     352.979
  H     -386.006    -574.898     352.167
  H     -385.896    -577.536     351.102
  H     -382.198    -575.966     356.358
  H     -388.221    -577.621     350.628
  H     -382.312    -575.358     354.763
  H     -388.098    -574.691     349.706
  H     -390.405    -574.708     350.743
  H     -390.275    -575.715     349.311
  P     -387.872    -578.583     348.223
  C     -385.776    -578.886     346.704
  O     -387.176    -578.739     346.777
  O     -389.430    -578.463     347.874
  O     -387.594    -579.686     349.174
  H     -389.965    -578.803     348.612
  H     -385.480    -578.976     345.680
  H     -385.481    -579.764     347.239
  H     -385.304    -578.029     347.137

 6  7  8  9  10  11  12  13  14  15  26  29  33  34 0
 6-311+G(2d,p)
 ****
 36  38  39  40  41 0
 6-311+G(2d,p)
 ****
 1  2  3  4  5  16  17  18  19  20  21  22  23  24  25 0
 3-21G
 ****
 27  28  30  31  32  35  37  42  43  44  45  46  47 0
 3-21G
 ****
 48  49 0
 3-21G
 ****


