%nproc=1
%NoSave
%Mem=1900MB
#P OB98/GEN NMR

erre ene a

0 1
  C     -172.161    -886.619    -369.288
  O     -171.884    -886.429    -370.666
  P     -172.639    -887.358    -371.737
  C     -172.799    -889.953    -372.111
  O     -172.211    -888.871    -371.411
  C     -171.911    -891.204    -371.983
  O     -170.633    -890.952    -372.635
  C     -171.610    -891.627    -370.535
  O     -171.557    -893.060    -370.522
  C     -170.234    -891.038    -370.290
  O     -169.544    -891.687    -369.233
  C     -169.596    -891.219    -371.674
  N     -168.443    -890.347    -371.907
  C     -167.195    -890.781    -371.456
  O     -167.020    -891.842    -370.853
  N     -166.145    -889.929    -371.687
  C     -166.235    -888.686    -372.261
  O     -165.259    -887.956    -372.432
  C     -167.575    -888.259    -372.678
  C     -168.602    -889.096    -372.491
  O     -171.835    -887.002    -373.074
  O     -174.115    -887.121    -371.804
  H     -170.890    -886.836    -372.919
  H     -169.145    -892.498    -369.588
  H     -165.223    -890.233    -371.402
  H     -167.680    -887.283    -373.118
  H     -169.611    -888.812    -372.787
  H     -169.293    -892.274    -371.810
  H     -170.332    -889.971    -370.034
  H     -172.376    -891.269    -369.829
  H     -172.403    -892.027    -372.537
  H     -172.886    -889.690    -373.170
  H     -173.794    -890.141    -371.724
  P     -171.777    -893.812    -369.106
  C     -170.143    -894.832    -367.334
  O     -170.348    -893.924    -368.388
  O     -172.051    -895.307    -369.620
  O     -172.910    -893.267    -368.277
  H     -171.398    -895.607    -370.274
  H     -169.068    -895.006    -367.216
  H     -170.635    -895.788    -367.509
  H     -170.528    -894.395    -366.400
  H     -171.583    -885.929    -368.710
  H     -171.906    -887.620    -369.008
  H     -173.202    -886.452    -369.107

 3  4  5  6  7  8  9  10  11  12  13  24  28  29  30  31  32 0
 6-311+G(2d,p)
 ****
 33  34 0
 6-311+G(2d,p)
 ****
 1  2  14  15  16  17  18  19  20  21  22  23  25  26  27 0
 3-21G
 ****
 35  36  37  38  39  40  41  42  43  44  45 0
 3-21G
 ****


