%nproc=1
%NoSave
%Mem=1900MB
#P OB98/GEN NMR

erre ene a

0 1
  C     1113.335    -328.892     979.773
  O     1114.655    -329.010     980.257
  H     1113.234    -327.932     979.261
  H     1112.627    -328.925     980.606
  H     1113.113    -329.692     979.064
  P     1115.104    -330.434     980.839
  C     1117.222    -330.696     979.351
  O     1115.918    -331.171     979.664
  C     1117.249    -330.146     977.922
  O     1116.315    -329.030     977.842
  C     1118.627    -329.627     977.480
  O     1118.789    -329.917     976.094
  C     1118.495    -328.127     977.666
  O     1119.396    -327.367     976.864
  C     1117.026    -327.916     977.279
  N     1116.492    -326.646     977.782
  C     1116.695    -325.512     976.992
  O     1117.202    -325.516     975.878
  N     1116.266    -324.334     977.546
  C     1115.706    -324.180     978.781
  O     1115.366    -323.086     979.224
  C     1115.526    -325.403     979.562
  C     1115.926    -326.557     979.037
  O     1113.726    -331.246     980.900
  O     1115.807    -330.402     982.158
  H     1113.293    -331.113     981.760
  H     1120.304    -327.658     977.085
  H     1116.405    -323.506     976.990
  H     1115.089    -325.316     980.550
  H     1115.830    -327.487     979.604
  H     1116.905    -327.956     976.194
  H     1118.665    -327.851     978.714
  H     1119.466    -330.038     978.055
  H     1116.883    -330.917     977.239
  H     1117.936    -331.529     979.422
  H     1117.507    -329.922     980.071
  P     1119.277    -331.399     975.706
  C     1117.799    -331.694     973.558
  O     1118.051    -332.059     974.913
  O     1119.264    -332.119     977.135
  O     1120.596    -331.414     975.003
  H     1118.541    -331.798     977.704
  H     1116.948    -332.232     973.196
  H     1118.653    -331.934     972.959
  H     1117.607    -330.643     973.502

 6  7  8  9  10  11  12  13  14  15  16  27  31  32  33  34  35 0
 6-311+G(2d,p)
 ****
 36  37 0
 6-311+G(2d,p)
 ****
 1  2  3  4  5  17  18  19  20  21  22  23  24  25 0
 3-21G
 ****
 26  28  29  30  38  39  40  41  42  43  44  45 0
 3-21G
 ****


