%nproc=1
%NoSave
%Mem=1900MB
#P OB98/GEN NMR

erre ene a

0 1
  C     -128.642    -259.014    -328.741
  O     -129.883    -258.750    -329.363
  H     -128.751    -259.886    -328.090
  H     -128.344    -258.156    -328.129
  H     -127.869    -259.224    -329.489
  P     -129.889    -257.633    -330.514
  C     -131.711    -256.353    -329.173
  O     -130.459    -256.288    -329.841
  C     -131.641    -255.595    -327.849
  O     -130.396    -255.882    -327.173
  C     -131.706    -254.076    -327.994
  O     -133.049    -253.618    -328.118
  C     -131.102    -253.645    -326.665
  O     -132.076    -253.796    -325.612
  C     -129.968    -254.668    -326.492
  N     -125.472    -252.572    -325.429
  C     -126.544    -252.843    -324.602
  N     -126.405    -252.498    -323.300
  N     -127.662    -253.395    -325.004
  C     -127.667    -253.677    -326.331
  C     -126.666    -253.463    -327.254
  C     -125.437    -252.853    -326.792
  O     -124.452    -252.612    -327.481
  N     -127.035    -253.887    -328.504
  C     -128.260    -254.344    -328.340
  N     -128.693    -254.235    -327.041
  O     -131.085    -258.100    -331.477
  O     -128.613    -257.487    -331.272
  H     -131.638    -253.520    -324.783
  H     -130.845    -257.893    -332.400
  H     -124.647    -252.134    -325.069
  H     -128.874    -254.766    -329.126
  H     -129.793    -254.922    -325.442
  H     -130.791    -252.601    -326.665
  H     -125.594    -252.022    -322.936
  H     -131.076    -253.721    -328.816
  H     -127.162    -252.719    -322.667
  H     -132.456    -255.960    -327.207
  H     -131.961    -257.402    -328.980
  H     -132.483    -255.916    -329.821
  P     -133.489    -252.983    -329.529
  C     -134.422    -250.867    -328.349
  O     -133.507    -251.393    -329.301
  O     -135.043    -253.363    -329.626
  O     -132.714    -253.473    -330.707
  H     -135.330    -253.364    -330.560
  H     -134.320    -249.803    -328.306
  H     -134.214    -251.284    -327.386
  H     -135.421    -251.118    -328.638

 6  7  8  9  10  11  12  13  14  15  26  29  33  34 0
 6-311+G(2d,p)
 ****
 36  38  39  40  41 0
 6-311+G(2d,p)
 ****
 1  2  3  4  5  16  17  18  19  20  21  22  23  24  25 0
 3-21G
 ****
 27  28  30  31  32  35  37  42  43  44  45  46  47 0
 3-21G
 ****
 48  49 0
 3-21G
 ****


