%nproc=1
%NoSave
%Mem=1900MB
#P OB98/GEN NMR

erre ene a

0 1
  C     -134.211    -781.804    -268.531
  O     -135.505    -782.405    -268.438
  P     -136.844    -781.605    -268.787
  C     -137.754    -781.548    -266.380
  O     -137.313    -780.778    -267.491
  C     -138.113    -780.664    -265.183
  O     -139.012    -779.609    -265.576
  C     -138.788    -781.398    -264.027
  O     -137.842    -782.111    -263.257
  C     -139.475    -780.241    -263.307
  O     -138.537    -779.553    -262.453
  C     -139.897    -779.339    -264.471
  N     -144.728    -777.843    -263.693
  C     -143.561    -777.431    -263.165
  N     -142.309    -777.883    -263.414
  C     -142.343    -778.848    -264.344
  C     -143.462    -779.382    -264.978
  C     -144.703    -778.833    -264.614
  N     -145.898    -779.272    -265.140
  N     -143.095    -780.380    -265.854
  C     -141.780    -780.441    -265.771
  N     -141.281    -779.534    -264.872
  O     -137.926    -782.448    -269.401
  O     -136.382    -780.459    -269.816
  H     -137.901    -779.094    -263.025
  H     -137.122    -780.220    -270.401
  H     -143.629    -776.626    -262.432
  H     -141.158    -781.115    -266.343
  H     -139.778    -778.273    -264.229
  H     -140.305    -780.571    -262.677
  H     -139.554    -782.077    -264.419
  H     -137.182    -780.181    -264.834
  H     -136.947    -782.241    -266.099
  H     -146.748    -778.850    -264.808
  H     -145.891    -780.046    -265.797
  H     -138.628    -782.132    -266.680
  P     -137.709    -783.699    -263.405
  C     -139.285    -784.099    -261.432
  O     -139.040    -784.339    -262.804
  O     -136.433    -784.290    -262.912
  O     -137.887    -783.935    -264.984
  H     -137.391    -784.733    -265.251
  H     -138.679    -784.777    -260.826
  H     -140.348    -784.278    -261.221
  H     -139.051    -783.058    -261.166
  H     -133.465    -782.519    -268.252
  H     -134.161    -780.961    -267.873
  H     -134.039    -781.482    -269.537

 3  4  5  6  7  8  9  10  11  12  22  25  29  30  31  32 0
 6-311+G(2d,p)
 ****
 33  36  37 0
 6-311+G(2d,p)
 ****
 1  2  13  14  15  16  17  18  19  20  21  23  24  26 0
 3-21G
 ****
 27  28  34  35  38  39  40  41  42  43  44  45  46  47  48 0
 3-21G
 ****


