%nproc=1
%NoSave
%Mem=1900MB
#P OB98/GEN NMR

erre ene a

0 1
  C      -35.231    -262.649      87.819
  O      -35.135    -262.908      86.429
  P      -36.399    -262.555      85.508
  C      -35.890    -259.997      85.482
  O      -36.796    -261.032      85.829
  C      -36.252    -259.397      84.120
  O      -37.603    -258.874      84.197
  C      -35.349    -258.240      83.660
  O      -35.285    -258.311      82.231
  C      -36.127    -257.009      84.079
  O      -35.745    -255.841      83.354
  C      -37.557    -257.476      83.828
  N      -40.771    -253.566      83.820
  C      -39.864    -253.966      82.852
  N      -39.858    -253.263      81.700
  N      -39.039    -254.975      83.001
  C      -39.173    -255.592      84.205
  C      -39.993    -255.263      85.251
  C      -40.930    -254.176      85.059
  O      -41.805    -253.838      85.851
  N      -39.775    -256.071      86.336
  C      -38.879    -256.942      85.922
  N      -38.511    -256.718      84.614
  O      -37.578    -263.404      86.176
  O      -36.240    -262.846      84.044
  H      -34.783    -255.711      83.489
  H      -37.687    -264.265      85.737
  H      -41.395    -252.792      83.636
  H      -38.462    -257.745      86.503
  H      -37.851    -257.389      82.774
  H      -35.958    -256.812      85.145
  H      -40.490    -252.498      81.507
  H      -34.346    -258.280      84.089
  H      -39.234    -253.562      80.965
  H      -36.254    -260.201      83.376
  H      -34.877    -260.418      85.416
  H      -35.894    -259.224      86.259
  P      -34.004    -257.664      81.508
  C      -32.888    -259.979      81.160
  O      -32.777    -258.677      81.703
  O      -33.630    -256.439      82.474
  O      -34.249    -257.185      80.114
  H      -33.251    -255.710      81.948
  H      -31.884    -260.390      81.016
  H      -33.409    -259.975      80.203
  H      -33.432    -260.619      81.862
  H      -34.318    -262.934      88.299
  H      -36.041    -263.213      88.232
  H      -35.406    -261.605      87.976

 3  4  5  6  7  8  9  10  11  12  23  26  30  31 0
 6-311+G(2d,p)
 ****
 33  35  36  37  38 0
 6-311+G(2d,p)
 ****
 1  2  13  14  15  16  17  18  19  20  21  22  24  25 0
 3-21G
 ****
 27  28  29  32  34  39  40  41  42  43  44  45  46  47  48  49 0
 3-21G
 ****


