%nproc=1
%NoSave
%Mem=1900MB
#P OB98/GEN NMR

erre ene a

0 1
  C      341.005    -156.140     766.763
  O      342.301    -156.713     766.927
  P      343.196    -156.950     765.605
  C      345.167    -155.490     766.404
  O      344.148    -155.674     765.421
  C      346.564    -155.496     765.726
  O      346.809    -156.742     765.054
  C      346.729    -154.430     764.676
  O      346.891    -153.143     765.265
  C      347.939    -154.945     763.904
  O      349.157    -154.605     764.584
  C      347.727    -156.479     763.968
  N      347.235    -157.038     762.718
  C      348.216    -157.322     761.758
  O      349.401    -157.060     761.971
  N      347.820    -157.885     760.552
  C      346.567    -158.136     760.345
  N      346.231    -158.685     759.154
  C      345.501    -157.835     761.328
  C      345.920    -157.299     762.484
  O      342.457    -157.401     764.390
  O      344.244    -158.077     766.111
  H      349.198    -155.164     765.381
  H      344.496    -158.621     765.325
  H      344.472    -158.074     761.128
  H      345.196    -157.050     763.260
  H      348.669    -156.980     764.224
  H      347.991    -154.531     762.899
  H      345.854    -154.414     764.008
  H      347.308    -155.370     766.515
  H      346.975    -158.873     758.502
  H      345.109    -156.273     767.144
  H      345.285    -158.977     758.916
  H      344.999    -154.534     766.907
  P      346.155    -151.899     764.554
  C      344.921    -150.953     766.633
  O      344.820    -151.588     765.361
  O      345.632    -152.537     763.166
  O      347.033    -150.723     764.297
  H      345.661    -151.858     762.467
  H      343.931    -150.541     766.892
  H      345.650    -150.143     766.613
  H      345.219    -151.687     767.397
  H      340.534    -156.044     767.719
  H      340.412    -156.772     766.135
  H      341.097    -155.174     766.312

 3  4  5  6  7  8  9  10  11  12  13  23  27  28  29  30  32 0
 6-311+G(2d,p)
 ****
 34  35 0
 6-311+G(2d,p)
 ****
 1  2  14  15  16  17  18  19  20  21  22  24  25  26 0
 3-21G
 ****
 31  33  36  37  38  39  40  41  42  43  44  45  46 0
 3-21G
 ****


