%nproc=1
%NoSave
%Mem=1900MB
#P OB98/GEN NMR

erre ene a

0 1
  C     -851.760     991.208     502.661
  O     -852.653     992.177     503.238
  P     -853.896     992.690     502.380
  C     -853.008     995.092     501.979
  O     -854.032     994.278     502.564
  C     -853.408     996.565     502.010
  O     -854.599     996.792     501.194
  C     -853.805     997.059     503.401
  O     -852.762     997.164     504.344
  C     -854.595     998.305     503.094
  O     -853.765     999.427     502.869
  C     -855.317     997.910     501.777
  N     -856.743     997.576     501.972
  C     -857.630     998.622     501.861
  O     -857.298     999.787     501.619
  N     -858.958     998.292     502.045
  C     -859.445     997.079     502.372
  O     -860.629     996.839     502.547
  C     -858.441     996.005     502.502
  C     -857.149     996.297     502.319
  O     -855.176     991.924     502.560
  O     -853.395     992.557     500.872
  H     -853.096     999.172     502.211
  H     -854.126     992.215     500.331
  H     -859.632     999.045     501.948
  H     -858.801     995.013     502.768
  H     -856.396     995.521     502.409
  H     -855.276     998.729     501.047
  H     -855.278     998.560     503.917
  H     -854.519     996.315     503.822
  H     -852.604     997.175     501.582
  H     -852.820     994.767     500.939
  H     -852.067     994.930     502.524
  P     -852.263     995.941     505.251
  C     -852.635     997.429     507.348
  O     -851.782     996.515     506.662
  O     -851.380     994.919     504.601
  O     -853.665     995.240     505.638
  H     -853.513     994.274     505.707
  H     -852.159     997.732     508.280
  H     -853.600     996.928     507.590
  H     -852.807     998.316     506.731
  H     -850.987     990.973     503.362
  H     -851.324     991.611     501.771
  H     -852.305     990.319     502.421

 3  4  5  6  7  8  9  10  11  12  13  23  28  29  30  31  32 0
 6-311+G(2d,p)
 ****
 33  34 0
 6-311+G(2d,p)
 ****
 1  2  14  15  16  17  18  19  20  21  22  24  25  26  27 0
 3-21G
 ****
 35  36  37  38  39  40  41  42  43  44  45 0
 3-21G
 ****


