%nproc=1
%NoSave
%Mem=1900MB
#P OB98/GEN NMR

erre ene a

0 1
  C     -131.598    -200.379      22.591
  O     -130.422    -200.676      23.309
  H     -131.530    -199.354      22.216
  H     -132.462    -200.453      23.256
  H     -131.730    -201.054      21.740
  P     -130.047    -202.208      23.570
  C     -130.004    -201.672      26.097
  O     -130.446    -202.570      25.085
  C     -130.179    -202.267      27.495
  O     -131.580    -202.511      27.746
  C     -129.458    -203.608      27.658
  O     -128.100    -203.503      28.047
  C     -130.291    -204.280      28.746
  O     -129.813    -203.936      30.058
  C     -131.696    -203.713      28.520
  N     -135.622    -206.963      28.933
  C     -134.913    -206.330      29.937
  N     -135.276    -206.633      31.202
  N     -133.933    -205.494      29.707
  C     -133.620    -205.368      28.398
  C     -134.237    -205.960      27.317
  C     -135.369    -206.825      27.576
  O     -136.040    -207.395      26.722
  N     -133.617    -205.627      26.137
  C     -132.579    -204.910      26.514
  N     -132.583    -204.660      27.865
  O     -128.443    -202.194      23.634
  O     -130.526    -203.177      22.533
  H     -130.108    -203.028      30.258
  H     -128.097    -203.042      23.300
  H     -136.384    -207.573      29.168
  H     -131.822    -204.509      25.849
  H     -132.171    -203.436      29.471
  H     -130.230    -205.369      28.665
  H     -135.963    -207.332      31.435
  H     -129.543    -204.206      26.745
  H     -134.661    -206.340      31.963
  H     -129.843    -201.535      28.242
  H     -130.608    -200.770      25.995
  H     -128.962    -201.391      25.928
  P     -127.127    -204.768      27.982
  C     -126.574    -204.686      30.548
  O     -127.045    -205.416      29.436
  O     -125.683    -204.103      27.790
  O     -127.433    -205.758      26.907
  H     -125.416    -204.122      26.854
  H     -126.602    -205.306      31.420
  H     -127.195    -203.828      30.701
  H     -125.568    -204.370      30.367

 6  7  8  9  10  11  12  13  14  15  26  29  33  34 0
 6-311+G(2d,p)
 ****
 36  38  39  40  41 0
 6-311+G(2d,p)
 ****
 1  2  3  4  5  16  17  18  19  20  21  22  23  24  25 0
 3-21G
 ****
 27  28  30  31  32  35  37  42  43  44  45  46  47 0
 3-21G
 ****
 48  49 0
 3-21G
 ****


