%nproc=1
%NoSave
%Mem=1900MB
#P OB98/GEN NMR

erre ene a

0 1
  C     -233.980    -569.974    -361.538
  O     -233.003    -569.735    -360.538
  P     -231.519    -569.341    -361.009
  C     -230.561    -571.504    -359.933
  O     -230.653    -570.695    -361.095
  C     -229.199    -572.201    -359.862
  O     -229.125    -573.004    -358.648
  C     -228.934    -573.142    -361.047
  O     -227.527    -573.128    -361.353
  C     -229.259    -574.516    -360.487
  O     -228.591    -575.547    -361.211
  C     -228.794    -574.355    -359.043
  N     -227.935    -577.719    -355.365
  C     -227.113    -576.728    -355.859
  N     -225.858    -576.687    -355.354
  N     -227.482    -575.854    -356.750
  C     -228.767    -576.016    -357.164
  C     -229.684    -576.954    -356.741
  C     -229.251    -577.930    -355.757
  O     -229.927    -578.848    -355.303
  N     -230.893    -576.793    -357.365
  C     -230.699    -575.784    -358.200
  N     -229.413    -575.304    -358.143
  O     -230.927    -568.597    -359.718
  O     -231.464    -568.463    -362.213
  H     -228.850    -576.396    -360.802
  H     -230.895    -567.635    -359.881
  H     -227.600    -578.378    -354.680
  H     -231.444    -575.381    -358.878
  H     -227.702    -574.466    -358.950
  H     -230.338    -574.693    -360.552
  H     -225.483    -577.377    -354.715
  H     -229.504    -572.906    -361.951
  H     -225.211    -575.995    -355.730
  H     -228.412    -571.440    -359.791
  H     -231.346    -572.254    -359.955
  H     -230.707    -570.878    -359.039
  P     -227.145    -573.373    -362.899
  C     -225.747    -575.544    -362.565
  O     -226.930    -574.950    -363.057
  O     -225.663    -572.777    -363.011
  O     -228.088    -572.736    -363.871
  H     -225.474    -572.498    -363.927
  H     -226.010    -576.248    -361.764
  H     -225.044    -574.806    -362.178
  H     -225.266    -576.097    -363.376
  H     -234.911    -570.224    -361.074
  H     -233.663    -570.785    -362.160
  H     -234.103    -569.094    -362.134

 3  4  5  6  7  8  9  10  11  12  23  26  30  31 0
 6-311+G(2d,p)
 ****
 33  35  36  37  38 0
 6-311+G(2d,p)
 ****
 1  2  13  14  15  16  17  18  19  20  21  22  24  25 0
 3-21G
 ****
 27  28  29  32  34  39  40  41  42  43  44  45  46  47  48  49 0
 3-21G
 ****


