%nproc=1
%NoSave
%Mem=1900MB
#P OB98/GEN NMR

erre ene a

0 1
  C     -183.611     -15.164     -30.894
  O     -184.031     -16.300     -30.160
  P     -184.110     -16.193     -28.561
  C     -186.631     -15.456     -28.656
  O     -185.309     -15.177     -28.231
  C     -187.641     -14.737     -27.757
  O     -188.981     -14.981     -28.265
  C     -187.618     -15.186     -26.289
  O     -187.903     -14.031     -25.488
  C     -188.765     -16.177     -26.223
  O     -189.254     -16.361     -24.905
  C     -189.764     -15.524     -27.183
  N     -190.771     -16.453     -27.696
  C     -191.718     -16.944     -26.803
  O     -191.745     -16.659     -25.606
  N     -192.640     -17.813     -27.330
  C     -192.664     -18.280     -28.612
  O     -193.502     -19.072     -29.025
  C     -191.609     -17.765     -29.497
  C     -190.735     -16.884     -29.010
  O     -182.790     -15.350     -28.242
  O     -184.199     -17.511     -27.874
  H     -182.590     -14.684     -28.920
  H     -190.012     -16.974     -24.946
  H     -193.360     -18.152     -26.708
  H     -191.586     -18.124     -30.519
  H     -189.949     -16.491     -29.642
  H     -190.261     -14.680     -26.690
  H     -188.426     -17.150     -26.598
  H     -186.655     -15.612     -25.999
  H     -187.461     -13.656     -27.830
  H     -186.809     -16.530     -28.605
  H     -186.747     -15.144     -29.699
  P     -187.720     -14.151     -23.893
  C     -185.281     -13.199     -23.946
  O     -186.151     -14.257     -23.599
  O     -188.228     -15.656     -23.663
  O     -188.491     -13.153     -23.094
  H     -187.828     -16.290     -24.281
  H     -184.354     -13.309     -23.378
  H     -185.721     -12.228     -23.713
  H     -185.049     -13.253     -25.014
  H     -183.611     -15.394     -31.939
  H     -182.623     -14.888     -30.590
  H     -184.281     -14.351     -30.708

 3  4  5  6  7  8  9  10  11  12  13  24  28  29  30  31  32 0
 6-311+G(2d,p)
 ****
 33  34 0
 6-311+G(2d,p)
 ****
 1  2  14  15  16  17  18  19  20  21  22  23  25  26  27 0
 3-21G
 ****
 35  36  37  38  39  40  41  42  43  44  45 0
 3-21G
 ****


