%nproc=1
%NoSave
%Mem=1900MB
#P OB98/GEN NMR

erre ene a

0 1
  C     -180.042    -895.570    -146.006
  O     -181.156    -895.520    -145.127
  P     -182.024    -896.850    -144.918
  C     -183.130    -895.830    -142.754
  O     -183.302    -896.420    -144.034
  C     -184.495    -895.410    -142.202
  O     -185.332    -896.570    -141.994
  C     -184.440    -894.700    -140.846
  O     -184.017    -893.350    -140.991
  C     -185.859    -894.870    -140.374
  O     -186.727    -893.890    -140.970
  C     -186.217    -896.280    -140.878
  N     -186.118    -897.320    -139.847
  C     -187.061    -897.260    -138.824
  O     -187.937    -896.390    -138.762
  N     -186.953    -898.200    -137.855
  C     -185.979    -899.170    -137.773
  O     -185.899    -900.000    -136.861
  C     -184.990    -899.160    -138.861
  C     -185.116    -898.270    -139.832
  O     -181.072    -897.660    -143.904
  O     -182.322    -897.570    -146.189
  H     -180.528    -897.060    -143.357
  H     -187.570    -893.920    -140.496
  H     -187.636    -898.190    -137.100
  H     -184.208    -899.920    -138.844
  H     -184.396    -898.230    -140.666
  H     -187.236    -896.290    -141.311
  H     -185.968    -894.760    -139.263
  H     -183.755    -895.220    -140.173
  H     -184.973    -894.760    -142.954
  H     -182.489    -894.950    -142.840
  H     -182.654    -896.560    -142.088
  P     -183.069    -892.780    -139.800
  C     -181.983    -891.270    -141.659
  O     -182.492    -891.370    -140.334
  O     -181.823    -893.780    -139.853
  O     -183.750    -892.720    -138.466
  H     -181.556    -893.990    -140.784
  H     -181.967    -890.210    -141.932
  H     -182.606    -891.840    -142.355
  H     -180.946    -891.680    -141.684
  H     -179.570    -894.611    -146.038
  H     -180.374    -895.837    -146.988
  H     -179.343    -896.300    -145.655

 3  4  5  6  7  8  9  10  11  12  13  24  28  29  30  31  32 0
 6-311+G(2d,p)
 ****
 33  34 0
 6-311+G(2d,p)
 ****
 1  2  14  15  16  17  18  19  20  21  22  23  25  26  27 0
 3-21G
 ****
 35  36  37  38  39  40  41  42  43  44  45 0
 3-21G
 ****


