%nproc=1
%NoSave
%Mem=1900MB
#P OB98/GEN NMR

erre ene a

0 1
  C      -98.085     -99.122     619.617
  O      -99.260     -99.650     620.199
  P      -99.896     -98.975     621.512
  C     -101.634    -100.879     621.616
  O     -100.604    -100.180     622.311
  C     -101.557    -102.378     621.904
  O     -100.537    -103.007     621.096
  C     -101.198    -102.714     623.354
  O     -102.321    -102.547     624.198
  C     -100.723    -104.154     623.209
  O     -101.834    -105.072     623.190
  C     -100.022    -104.132     621.831
  N      -98.567    -104.078     621.953
  C      -97.941    -105.265     622.344
  O      -98.612    -106.276     622.603
  N      -96.572    -105.277     622.492
  C      -95.895    -104.188     622.275
  N      -94.543    -104.257     622.449
  C      -96.525    -102.906     621.897
  C      -97.849    -102.920     621.754
  O     -100.753     -97.783     621.255
  O      -98.608     -98.652     622.411
  H     -101.471    -105.944     622.937
  H      -98.107     -97.882     622.059
  H      -95.920    -102.021     621.741
  H      -98.392    -102.024     621.474
  H     -100.284    -105.030     621.245
  H     -100.069    -104.462     624.034
  H     -100.362    -102.090     623.685
  H     -102.523    -102.832     621.643
  H      -94.162    -105.147     622.741
  H     -101.501    -100.716     620.542
  H      -93.937    -103.460     622.351
  H     -102.609    -100.478     621.913
  P     -102.102    -102.259     625.760
  C     -104.603    -101.871     626.213
  O     -103.459    -102.650     626.517
  O     -101.552    -100.911     626.091
  O     -101.085    -103.415     626.216
  H     -100.399    -103.025     626.787
  H     -105.499    -102.423     626.512
  H     -104.659    -101.664     625.140
  H     -104.559    -100.926     626.765
  H      -97.820     -99.703     618.759
  H      -97.288     -99.155     620.330
  H      -98.258     -98.108     619.322

 3  4  5  6  7  8  9  10  11  12  13  23  27  28  29  30  32 0
 6-311+G(2d,p)
 ****
 34  35 0
 6-311+G(2d,p)
 ****
 1  2  14  15  16  17  18  19  20  21  22  24  25  26 0
 3-21G
 ****
 31  33  36  37  38  39  40  41  42  43  44  45  46 0
 3-21G
 ****


