%nproc=1
%NoSave
%Mem=1900MB
#P OB98/GEN NMR

erre ene a

0 1
  C      -95.326     -10.382       4.780
  O      -95.906      -9.535       3.811
  H      -95.405      -9.900       5.757
  H      -94.268     -10.537       4.548
  H      -95.838     -11.346       4.822
  P      -96.248     -10.136       2.368
  C      -98.270     -11.674       2.823
  O      -97.828     -10.418       2.334
  C      -99.786     -11.831       2.656
  O     -100.469     -10.978       3.607
  C     -100.219     -11.376       1.259
  O     -101.388     -12.055       0.810
  C     -100.548      -9.905       1.471
  O     -101.420      -9.380       0.475
  C     -101.149      -9.942       2.875
  N     -102.855      -5.171       3.420
  C     -103.175      -6.109       2.458
  N     -104.048      -5.716       1.503
  N     -102.671      -7.315       2.428
  C     -101.756      -7.543       3.400
  C     -101.339      -6.687       4.393
  C     -101.933      -5.369       4.441
  O     -101.674      -4.489       5.260
  N     -100.381      -7.267       5.187
  C     -100.213      -8.469       4.672
  N     -101.036      -8.689       3.593
  O      -95.633     -11.615       2.415
  O      -95.719      -9.360       1.200
  H     -102.220      -9.938       0.461
  H      -95.431     -11.927       1.516
  H     -103.284      -4.262       3.408
  H      -99.518      -9.213       5.041
  H     -102.215     -10.202       2.833
  H      -99.616      -9.335       1.420
  H     -104.322      -4.753       1.386
  H      -99.427     -11.506       0.521
  H     -104.065      -6.272       0.644
  H     -100.088     -12.860       2.877
  H      -98.004     -11.720       3.885
  H      -97.741     -12.486       2.317
  P     -101.357     -12.689      -0.662
  C     -100.360     -15.111      -0.830
  O     -101.463     -14.282      -0.511
  O      -99.855     -12.439      -1.146
  O     -102.357     -12.092      -1.594
  H      -99.828     -11.716      -1.801
  H     -100.624     -16.135      -0.666
  H      -99.528     -14.853      -0.208
  H     -100.094     -14.972      -1.857

 6  7  8  9  10  11  12  13  14  15  26  29  33  34 0
 6-311+G(2d,p)
 ****
 36  38  39  40  41 0
 6-311+G(2d,p)
 ****
 1  2  3  4  5  16  17  18  19  20  21  22  23  24  25 0
 3-21G
 ****
 27  28  30  31  32  35  37  42  43  44  45  46  47 0
 3-21G
 ****
 48  49 0
 3-21G
 ****


