%nproc=1
%NoSave
%Mem=1900MB
#P OB98/GEN NMR

erre ene a

0 1
  C     1144.681     189.935    1379.996
  O     1145.428     190.461    1378.903
  H     1143.664     189.746    1379.654
  H     1144.676     190.650    1380.811
  H     1145.131     188.996    1380.332
  P     1146.969     190.828    1379.189
  C     1146.984     192.376    1381.281
  O     1146.961     192.293    1379.859
  C     1147.617     193.695    1381.724
  O     1149.022     193.737    1381.360
  C     1146.961     194.940    1381.143
  O     1145.802     195.312    1381.880
  C     1148.100     195.960    1381.268
  O     1148.171     196.498    1382.613
  C     1149.338     195.101    1380.971
  N     1150.839     198.080    1377.147
  C     1150.580     198.387    1378.486
  N     1150.687     199.689    1378.842
  N     1150.237     197.478    1379.378
  C     1150.137     196.248    1378.888
  C     1150.397     195.805    1377.598
  C     1150.796     196.802    1376.594
  O     1151.104     196.596    1375.442
  N     1150.211     194.463    1377.495
  C     1149.821     194.078    1378.674
  N     1149.738     195.119    1379.556
  O     1147.575     191.092    1377.725
  O     1147.746     189.781    1379.920
  H     1147.282     196.838    1382.854
  H     1148.522     190.852    1377.723
  H     1151.116     198.807    1376.534
  H     1149.557     193.051    1378.935
  H     1150.213     195.412    1381.542
  H     1147.950     196.807    1380.604
  H     1150.613     200.420    1378.165
  H     1146.731     194.787    1380.073
  H     1150.463     199.911    1379.811
  H     1147.565     193.711    1382.835
  H     1147.573     191.539    1381.687
  H     1145.956     192.295    1381.658
  P     1144.373     195.152    1381.138
  C     1144.705     196.699    1379.052
  O     1144.108     196.522    1380.361
  O     1143.311     195.206    1382.346
  O     1144.236     193.912    1380.337
  H     1142.477     194.852    1382.071
  H     1144.437     197.660    1378.665
  H     1144.349     195.936    1378.392
  H     1145.770     196.632    1379.134

 6  7  8  9  10  11  12  13  14  15  26  29  33  34 0
 6-311+G(2d,p)
 ****
 36  38  39  40  41 0
 6-311+G(2d,p)
 ****
 1  2  3  4  5  16  17  18  19  20  21  22  23  24  25 0
 3-21G
 ****
 27  28  30  31  32  35  37  42  43  44  45  46  47 0
 3-21G
 ****
 48  49 0
 3-21G
 ****


