%nproc=1
%NoSave
%Mem=1900MB
#P OB98/GEN NMR

erre ene a

0 1
  C     -379.392    -131.181     434.801
  O     -380.715    -131.668     434.988
  P     -380.921    -132.843     436.054
  C     -382.778    -133.444     437.771
  O     -382.374    -132.636     436.680
  C     -383.718    -132.683     438.697
  O     -383.018    -131.599     439.348
  C     -384.893    -132.037     437.983
  O     -385.888    -133.009     437.673
  C     -385.349    -131.003     439.012
  O     -386.263    -131.573     439.960
  C     -384.006    -130.600     439.692
  N     -383.561    -129.272     439.321
  C     -382.813    -128.590     440.291
  O     -382.594    -129.123     441.382
  N     -382.377    -127.315     440.024
  C     -382.660    -126.767     438.870
  N     -382.198    -125.515     438.656
  C     -383.463    -127.452     437.834
  C     -383.888    -128.683     438.135
  O     -379.931    -132.433     437.255
  O     -380.632    -134.220     435.534
  H     -386.350    -130.908     440.669
  H     -379.644    -133.219     437.756
  H     -383.669    -126.945     436.894
  H     -384.479    -129.245     437.411
  H     -384.101    -130.639     440.781
  H     -385.861    -130.156     438.538
  H     -384.559    -131.537     437.068
  H     -384.075    -133.374     439.489
  H     -381.649    -125.065     439.387
  H     -381.881    -133.751     438.349
  H     -382.345    -125.002     437.791
  H     -383.253    -134.355     437.387
  P     -387.259    -132.494     437.028
  C     -388.898    -133.568     435.380
  O     -387.560    -133.510     435.839
  O     -386.783    -131.183     436.236
  O     -388.394    -132.192     437.964
  H     -387.557    -130.715     435.874
  H     -388.943    -134.172     434.475
  H     -389.268    -132.569     435.145
  H     -389.540    -134.021     436.148
  H     -379.399    -130.403     434.066
  H     -378.762    -131.979     434.470
  H     -379.020    -130.794     435.727

 3  4  5  6  7  8  9  10  11  12  13  21  23  27  28  29  30  32 0
 6-311+G(2d,p)
 ****
 34  35 0
 6-311+G(2d,p)
 ****
 1  2  14  15  16  17  18  19  20  22  24  25  26 0
 3-21G
 ****
 31  33  36  37  38  39  40  41  42  43  44  45  46 0
 3-21G
 ****


