%nproc=1
%NoSave
%Mem=1900MB
#P OB98/GEN NMR

erre ene a

0 1
  C     -191.409     -86.256    -192.440
  O     -191.864     -84.917    -192.437
  H     -191.631     -86.699    -193.415
  H     -191.928     -86.828    -191.666
  H     -190.329     -86.292    -192.270
  P     -191.487     -84.027    -191.160
  C     -193.569     -82.566    -191.815
  O     -192.785     -83.157    -190.786
  C     -194.819     -81.925    -191.216
  O     -195.812     -82.919    -190.894
  C     -194.573     -81.217    -189.894
  O     -193.843     -80.020    -190.041
  C     -196.004     -81.015    -189.421
  O     -196.616     -79.899    -190.084
  C     -196.664     -82.344    -189.866
  N     -196.866     -83.265    -188.756
  C     -197.856     -82.899    -187.835
  O     -198.499     -81.861    -187.993
  N     -198.067     -83.704    -186.743
  C     -197.375     -84.790    -186.597
  N     -197.626     -85.538    -185.490
  C     -196.341     -85.225    -187.558
  C     -196.140     -84.421    -188.600
  O     -190.496     -82.934    -191.777
  O     -190.929     -84.782    -189.999
  H     -196.124     -79.106    -189.795
  H     -190.865     -82.461    -192.542
  H     -195.795     -86.144    -187.400
  H     -195.399     -84.666    -189.351
  H     -197.639     -82.153    -190.333
  H     -196.058     -80.815    -188.349
  H     -194.080     -81.896    -189.187
  H     -195.243     -81.244    -191.964
  H     -198.327     -85.198    -184.843
  H     -193.840     -83.307    -192.573
  H     -197.127     -86.384    -185.255
  H     -192.952     -81.805    -192.303
  P     -192.313     -79.934    -189.568
  C     -192.311     -77.395    -189.992
  O     -192.089     -78.433    -189.044
  O     -191.312     -80.396    -190.571
  O     -192.302     -80.774    -188.204
  H     -192.892     -80.430    -187.510
  H     -192.132     -76.446    -189.531
  H     -193.323     -77.438    -190.338
  H     -191.645     -77.520    -190.820

 6  7  8  9  10  11  12  13  14  15  16  26  30  31  32  33  35 0
 6-311+G(2d,p)
 ****
 37  38 0
 6-311+G(2d,p)
 ****
 1  2  3  4  5  17  18  19  20  21  22  23  24  25 0
 3-21G
 ****
 27  28  29  34  36  39  40  41  42  43  44  45  46 0
 3-21G
 ****


