%nproc=1
%NoSave
%Mem=1900MB
#P OB98/GEN NMR

erre ene a

0 1
  C      -54.776     -39.550      38.888
  O      -56.055     -39.648      38.290
  P      -57.045     -40.805      38.784
  C      -57.606     -43.219      37.996
  O      -56.695     -42.132      37.953
  C      -56.850     -44.545      38.096
  O      -56.170     -44.616      39.386
  C      -57.747     -45.786      37.983
  O      -56.988     -46.809      37.324
  C      -57.962     -46.168      39.435
  O      -58.380     -47.514      39.604
  C      -56.574     -45.854      40.004
  N      -56.566     -45.757      41.463
  C      -56.453     -46.942      42.182
  O      -56.361     -48.054      41.665
  N      -56.510     -46.820      43.544
  C      -56.756     -45.672      44.239
  O      -56.912     -45.649      45.454
  C      -56.868     -44.451      43.427
  C      -56.769     -44.547      42.099
  O      -58.462     -40.351      38.197
  O      -57.088     -40.998      40.263
  H      -58.661     -47.619      40.530
  H      -58.998     -39.926      38.892
  H      -56.418     -47.667      44.082
  H      -57.041     -43.518      43.948
  H      -56.868     -43.665      41.474
  H      -55.854     -46.620      39.688
  H      -58.729     -45.520      39.873
  H      -58.684     -45.602      37.450
  H      -56.074     -44.563      37.321
  H      -58.209     -43.218      37.087
  H      -58.284     -43.096      38.848
  P      -57.681     -47.589      36.103
  C      -59.495     -49.463      35.931
  O      -58.631     -48.703      36.749
  O      -56.436     -48.424      35.537
  O      -58.305     -46.686      35.090
  H      -55.901     -48.822      36.243
  H      -59.054     -49.655      34.949
  H      -60.437     -48.926      35.803
  H      -59.697     -50.419      36.420
  H      -54.240     -38.733      38.452
  H      -54.235     -40.459      38.725
  H      -54.886     -39.384      39.939

 3  4  5  6  7  8  9  10  11  12  13  23  28  29  30  31  32 0
 6-311+G(2d,p)
 ****
 33  34 0
 6-311+G(2d,p)
 ****
 1  2  14  15  16  17  18  19  20  21  22  24  25  26 0
 3-21G
 ****
 27  35  36  37  38  39  40  41  42  43  44  45 0
 3-21G
 ****


