%nproc=1
%NoSave
%Mem=1900MB
#P OB98/GEN NMR

erre ene a

0 1
  C      242.295    -111.951     457.163
  O      241.295    -112.424     456.287
  H      242.619    -112.776     457.802
  H      241.908    -111.150     457.788
  H      243.154    -111.590     456.587
  P      240.604    -111.331     455.329
  C      240.143    -113.365     453.759
  O      239.627    -112.207     454.401
  C      239.149    -114.519     453.870
  O      237.848    -114.118     453.375
  C      239.520    -115.757     453.059
  O      240.528    -116.544     453.680
  C      238.179    -116.466     453.040
  O      237.926    -117.061     454.327
  C      237.226    -115.284     452.768
  N      236.976    -115.057     451.341
  C      235.994    -115.853     450.744
  O      235.378    -116.697     451.401
  N      235.753    -115.702     449.398
  C      236.408    -114.816     448.716
  N      236.126    -114.723     447.390
  C      237.444    -113.951     449.312
  C      237.675    -114.118     450.610
  O      241.780    -110.930     454.321
  O      239.946    -110.180     456.019
  H      238.551    -117.803     454.415
  H      241.415    -110.365     453.589
  H      237.976    -113.233     448.693
  H      238.421    -113.515     451.112
  H      236.263    -115.430     453.277
  H      238.121    -117.272     452.305
  H      239.805    -115.499     452.041
  H      239.028    -114.749     454.927
  H      235.452    -115.377     447.004
  H      241.092    -113.634     454.250
  H      236.682    -114.172     446.748
  H      240.339    -113.151     452.709
  P      241.983    -116.540     452.996
  C      243.040    -117.124     455.292
  O      242.935    -117.446     453.911
  O      242.504    -115.054     453.265
  O      241.996    -116.876     451.538
  H      243.062    -114.733     452.520
  H      243.706    -117.812     455.769
  H      242.074    -117.189     455.748
  H      243.419    -116.129     455.398

 6  7  8  9  10  11  12  13  14  15  16  26  30  31  32  33  35 0
 6-311+G(2d,p)
 ****
 37  38 0
 6-311+G(2d,p)
 ****
 1  2  3  4  5  17  18  19  20  21  22  23  24  25 0
 3-21G
 ****
 27  28  29  34  36  39  40  41  42  43  44  45  46 0
 3-21G
 ****


