%nproc=1
%NoSave
%Mem=1900MB
#P OB98/GEN NMR

erre ene a

0 1
  C       35.982    -159.989    -122.861
  O       36.247    -161.383    -122.832
  P       35.954    -162.170    -121.465
  C       33.992    -162.215    -119.781
  O       34.637    -161.506    -120.830
  C       33.703    -161.296    -118.601
  O       34.954    -160.984    -117.930
  C       33.041    -159.963    -118.986
  O       31.992    -159.670    -118.053
  C       34.146    -158.943    -118.771
  O       33.629    -157.644    -118.507
  C       34.889    -159.582    -117.599
  N       37.473    -155.798    -115.478
  C       36.152    -156.163    -115.317
  N       35.401    -155.371    -114.519
  N       35.612    -157.208    -115.886
  C       36.488    -157.926    -116.631
  C       37.819    -157.670    -116.860
  C       38.388    -156.477    -116.271
  O       39.527    -156.049    -116.449
  N       38.382    -158.635    -117.656
  C       37.394    -159.470    -117.911
  N       36.212    -159.056    -117.351
  O       37.134    -161.669    -120.507
  O       35.942    -163.656    -121.575
  H       34.335    -157.005    -118.723
  H       37.632    -162.438    -120.167
  H       37.833    -154.974    -115.030
  H       37.479    -160.362    -118.519
  H       34.309    -159.477    -116.674
  H       34.770    -158.895    -119.669
  H       35.762    -154.574    -114.021
  H       32.645    -159.936    -120.006
  H       34.435    -155.637    -114.370
  H       33.082    -161.840    -117.878
  H       34.639    -163.033    -119.450
  H       33.058    -162.639    -120.165
  P       30.879    -158.623    -118.551
  C       28.942    -158.771    -120.285
  O       30.144    -159.326    -119.787
  O       31.743    -157.462    -119.231
  O       29.994    -158.116    -117.461
  H       31.249    -156.621    -119.223
  H       28.728    -157.791    -119.849
  H       28.116    -159.447    -120.056
  H       29.024    -158.664    -121.370
  H       36.222    -159.600    -123.828
  H       36.578    -159.497    -122.121
  H       34.946    -159.819    -122.656

 3  4  5  6  7  8  9  10  11  12  23  26  30  31  33  0
 6-311+G(2d,p)
 ****
 35  36  37  38 0
 6-311+G(2d,p)
 ****
 1  2  13  14  15  16  17  18  19  20  21  22  24  25  27  28  29 0
 3-21G
 ****
 32  34  39  40  41  42  43  44  45  46  47  48  49 0
 3-21G
 ****


