%nproc=1
%NoSave
%Mem=1900MB
#P OB98/GEN NMR

erre ene a

0 1
  C      -92.354    -194.285      35.093
  O      -93.282    -195.256      35.534
  P      -94.852    -194.971      35.415
  C      -96.580    -193.443      36.547
  O      -95.259    -193.971      36.599
  C      -97.430    -194.030      37.673
  O      -96.931    -193.602      38.956
  C      -98.891    -193.597      37.636
  O      -99.602    -194.299      36.635
  C      -99.325    -193.906      39.064
  O      -99.643    -195.300      39.205
  C      -98.058    -193.561      39.861
  N      -97.603    -191.093      44.300
  C      -97.630    -192.409      44.000
  N      -97.794    -192.990      42.793
  C      -97.965    -192.058      41.842
  C      -97.998    -190.682      42.001
  C      -97.781    -190.196      43.300
  N      -97.690    -188.857      43.609
  N      -98.230    -190.061      40.788
  C      -98.343    -191.045      39.918
  N      -98.126    -192.263      40.499
  O      -95.713    -196.182      35.287
  O      -94.973    -194.050      34.111
  H     -100.337    -195.508      38.551
  H      -95.530    -194.500      33.447
  H      -97.492    -193.084      44.839
  H      -98.563    -190.926      38.866
  H      -97.858    -194.301      40.646
  H     -100.208    -193.338      39.367
  H      -98.955    -192.516      37.467
  H      -97.351    -195.124      37.626
  H      -97.017    -193.704      35.578
  H      -97.388    -188.622      44.543
  H      -97.517    -188.199      42.853
  H      -96.539    -192.353      36.633
  P     -101.033    -193.768      36.152
  C     -103.270    -193.218      37.277
  O     -102.012    -193.852      37.418
  O     -101.558    -194.379      34.896
  O     -100.809    -192.191      35.982
  H     -101.379    -191.859      35.262
  H     -103.153    -192.138      37.402
  H     -103.940    -193.593      38.055
  H     -103.707    -193.431      36.299
  H      -91.359    -194.646      35.249
  H      -92.496    -193.379      35.645
  H      -92.505    -194.095      34.051

 3  4  5  6  7  8  9  10  11  12  22  25  29  30  31  32 0
 6-311+G(2d,p)
 ****
 33  36  37 0
 6-311+G(2d,p)
 ****
 1  2  13  14  15  16  17  18  19  20  21  23  24  26 0
 3-21G
 ****
 27  28  34  35  38  39  40  41  42  43  44  45  46  47  48 0
 3-21G
 ****


