%nproc=1
%NoSave
%Mem=1900MB
#P OB98/GEN NMR

erre ene a

0 1
  C      110.044      29.852    -181.791
  O      110.121      28.448    -181.938
  P      110.148      27.477    -180.662
  C      112.721      27.645    -180.667
  O      111.534      27.772    -179.895
  C      113.717      26.711    -179.965
  O      114.061      27.282    -178.668
  C      113.145      25.299    -179.719
  O      113.962      24.232    -180.203
  C      112.884      25.296    -178.222
  O      112.798      24.003    -177.652
  C      114.011      26.204    -177.711
  N      113.774      26.678    -176.350
  C      114.114      25.812    -175.308
  O      114.604      24.696    -175.464
  N      113.813      26.243    -174.049
  C      113.117      27.380    -173.732
  O      112.799      27.656    -172.589
  C      112.752      28.234    -174.872
  C      113.108      27.861    -176.105
  O      109.902      26.039    -180.951
  O      109.075      28.144    -179.674
  H      112.441      24.097    -176.746
  H      109.274      29.059    -179.409
  H      114.054      25.630    -173.284
  H      112.191      29.132    -174.655
  H      112.848      28.474    -176.968
  H      114.977      25.698    -177.740
  H      111.913      25.785    -178.045
  H      112.190      25.158    -180.253
  H      114.625      26.667    -180.582
  H      113.178      28.637    -180.779
  H      112.479      27.282    -181.671
  P      113.462      23.035    -181.140
  C      114.083      21.242    -179.348
  O      113.090      21.789    -180.196
  O      114.341      22.707    -182.289
  O      112.027      23.531    -181.653
  H      111.841      23.149    -182.527
  H      113.861      20.182    -179.193
  H      114.060      21.757    -178.385
  H      115.079      21.332    -179.791
  H      110.038      30.312    -182.757
  H      110.890      30.199    -181.236
  H      109.146      30.107    -181.269

 3  4  5  6  7  8  9  10  11  12  13  23  28  29  30  31  32 0
 6-311+G(2d,p)
 ****
 33  34 0
 6-311+G(2d,p)
 ****
 1  2  14  15  16  17  18  19  20  21  22  24  25  26  27 0
 3-21G
 ****
 35  36  37  38  39  40  41  42  43  44  45 0
 3-21G
 ****


