%nproc=1
%NoSave
%Mem=1900MB
#P OB98/GEN NMR

erre ene a

0 1
  C      691.902    -307.818     673.000
  O      692.977    -307.459     672.160
  H      692.080    -308.828     673.382
  H      690.959    -307.818     672.445
  H      691.839    -307.124     673.847
  P      692.890    -306.015     671.456
  C      694.033    -304.737     673.388
  O      692.820    -304.981     672.692
  C      694.408    -303.255     673.326
  O      693.402    -302.499     674.046
  C      695.777    -302.940     673.948
  O      696.428    -301.936     673.177
  C      695.400    -302.377     675.321
  O      696.417    -301.513     675.834
  C      694.075    -301.691     675.033
  N      692.350    -298.441     678.571
  C      693.026    -298.254     677.414
  N      693.440    -299.178     676.529
  C      693.023    -300.400     676.889
  C      692.326    -300.757     678.036
  C      691.987    -299.702     678.910
  N      691.315    -299.899     680.102
  N      692.135    -302.126     678.074
  C      692.689    -302.590     676.972
  N      693.260    -301.587     676.226
  O      691.818    -305.861     670.430
  O      694.389    -305.813     670.932
  H      697.246    -302.026     675.917
  H      695.041    -306.086     671.609
  H      693.283    -297.210     677.195
  H      692.728    -303.637     676.679
  H      694.200    -300.676     674.631
  H      695.273    -303.192     676.032
  H      696.415    -303.815     674.033
  H      694.368    -302.924     672.269
  H      694.845    -305.338     672.958
  H      691.084    -299.096     680.655
  H      691.020    -300.832     680.350
  H      693.894    -305.048     674.433
  P      697.794    -302.317     672.427
  C      696.825    -302.145     670.049
  O      697.426    -302.996     671.022
  O      698.811    -303.041     673.250
  O      698.343    -300.872     671.978
  H      699.326    -300.879     672.063
  H      696.626    -302.705     669.159
  H      697.490    -301.338     669.821
  H      695.908    -301.753     670.436

 6  7  8  9  10  11  12  13  14  15  25  28  32  33  34  35 0
 6-311+G(2d,p)
 ****
 36  39  40 0
 6-311+G(2d,p)
 ****
 1  2  3  4  5  16  17  18  19  20  21  22  23  24 0
 3-21G
 ****
 26  27  29  30  31  37  38  41  42  43  44  45  46  47 0
 3-21G
 ****
 48 0
 3-21G
 ****


