%nproc=1
%NoSave
%Mem=1900MB
#P OB98/GEN NMR

erre ene a

0 1
  C        5.764      34.044     -18.648
  O        6.611      35.193     -18.694
  P        8.182      35.014     -18.433
  C        8.715      34.084     -20.776
  O        8.955      35.123     -19.837
  C        8.890      34.597     -22.212
  O        7.706      35.329     -22.643
  C       10.084      35.550     -22.355
  O       10.686      35.413     -23.653
  C        9.434      36.918     -22.288
  O       10.264      37.925     -22.863
  C        8.131      36.650     -23.037
  N        6.728      41.557     -23.459
  C        7.798      40.884     -23.938
  N        8.094      39.574     -23.805
  C        7.138      38.940     -23.105
  C        5.987      39.492     -22.564
  C        5.798      40.871     -22.756
  N        4.722      41.561     -22.245
  N        5.245      38.532     -21.906
  C        5.960      37.431     -22.007
  N        7.094      37.619     -22.750
  O        8.569      33.844     -17.592
  O        8.581      36.393     -17.715
  H        9.915      38.790     -22.578
  H        9.198      36.203     -16.982
  H        8.515      41.480     -24.497
  H        5.712      36.482     -21.554
  H        8.282      36.637     -24.124
  H        9.243      37.188     -21.243
  H       10.860      35.424     -21.594
  H        8.998      33.740     -22.886
  H        7.705      33.692     -20.642
  H        4.731      42.566     -22.334
  H        4.104      41.093     -21.597
  H        9.393      33.248     -20.567
  P       12.161      34.767     -23.682
  C       11.461      32.255     -23.500
  O       11.979      33.298     -24.294
  O       12.876      34.854     -22.375
  O       12.862      35.600     -24.855
  H       12.354      35.648     -25.682
  H       11.298      31.378     -24.133
  H       10.506      32.542     -23.052
  H       12.174      31.991     -22.714
  H        4.754      34.338     -18.843
  H        5.824      33.595     -17.679
  H        6.079      33.339     -19.388

 3  4  5  6  7  8  9  10  11  12  22  25  29  30  31  32 0
 6-311+G(2d,p)
 ****
 33  36  37 0
 6-311+G(2d,p)
 ****
 1  2  13  14  15  16  17  18  19  20  21  23  24  26 0
 3-21G
 ****
 27  28  34  35  38  39  40  41  42  43  44  45  46  47  48 0
 3-21G
 ****


