%nproc=1
%NoSave
%Mem=1900MB
#P OB98/GEN NMR

erre ene a

0 1
  C     -146.591     -85.157      -4.981
  O     -147.007     -86.078      -5.985
  P     -146.004     -86.402      -7.191
  C     -144.756     -88.613      -6.444
  O     -144.744     -87.217      -6.644
  C     -144.633     -89.321      -7.803
  O     -143.422     -88.911      -8.474
  C     -144.589     -90.842      -7.689
  O     -145.885     -91.410      -7.660
  C     -143.787     -91.225      -8.917
  O     -144.615     -91.167     -10.094
  C     -142.726     -90.099      -8.948
  N     -141.496     -90.279      -8.147
  C     -140.475     -91.099      -8.618
  O     -140.515     -91.711      -9.683
  N     -139.365     -91.196      -7.821
  C     -139.098     -90.445      -6.715
  O     -138.059     -90.532      -6.074
  C     -140.143     -89.485      -6.343
  C     -141.275     -89.455      -7.050
  O     -145.398     -84.975      -7.574
  O     -146.646     -87.072      -8.366
  H     -144.953     -90.257     -10.164
  H     -145.666     -84.722      -8.477
  H     -138.645     -91.841      -8.112
  H     -139.954     -88.835      -5.499
  H     -142.055     -88.747      -6.782
  H     -142.404     -89.902      -9.977
  H     -143.426     -92.248      -8.850
  H     -144.014     -91.138      -6.807
  H     -145.484     -89.020      -8.429
  H     -145.673     -88.927      -5.942
  H     -143.924     -88.897      -5.793
  P     -146.078     -92.930      -7.193
  C     -145.890     -92.674      -4.649
  O     -145.235     -93.076      -5.835
  O     -145.822     -93.971      -8.229
  O     -147.593     -92.969      -6.665
  H     -148.199     -93.297      -7.369
  H     -145.278     -92.969      -3.792
  H     -146.868     -93.156      -4.567
  H     -146.009     -91.587      -4.639
  H     -147.367     -85.049      -4.252
  H     -146.389     -84.207      -5.430
  H     -145.704     -85.523      -4.507

 3  4  5  6  7  8  9  10  11  12  13  23  28  29  30  31  32 0
 6-311+G(2d,p)
 ****
 33  34 0
 6-311+G(2d,p)
 ****
 1  2  14  15  16  17  18  19  20  21  22  24  25  26  27 0
 3-21G
 ****
 35  36  37  38  39  40  41  42  43  44  45 0
 3-21G
 ****


