%nproc=1
%NoSave
%Mem=1900MB
#P OB98/GEN NMR

erre ene a

0 1
  C       99.567     239.796     -88.422
  O       99.802     239.815     -89.814
  H      100.503     240.033     -87.908
  H       99.239     238.803     -88.108
  H       98.818     240.541     -88.144
  P       98.555     239.664     -90.809
  C       96.460     238.164     -90.779
  O       97.841     238.274     -90.453
  C       95.897     236.861     -90.218
  O       96.072     236.824     -88.784
  C       94.402     236.687     -90.450
  O       94.120     236.331     -91.789
  C       94.076     235.621     -89.417
  O       94.395     234.313     -89.904
  C       95.005     236.010     -88.246
  N       94.287     236.715     -87.185
  C       93.659     235.918     -86.234
  O       93.695     234.690     -86.246
  N       92.927     236.586     -85.289
  C       92.658     237.924     -85.291
  O       91.803     238.439     -84.577
  C       93.397     238.722     -86.280
  C       94.156     238.090     -87.177
  O       98.854     239.872     -92.256
  O       97.510     240.750     -90.267
  H       97.537     241.537     -90.844
  H       94.050     233.687     -89.234
  H       92.434     236.012     -84.619
  H       93.266     239.796     -86.268
  H       94.685     238.653     -87.939
  H       95.474     235.116     -87.816
  H       93.016     235.628     -89.153
  H       93.876     237.610     -90.184
  H       96.460     236.026     -90.652
  H       96.354     238.167     -91.868
  H       95.927     239.027     -90.366
  P       92.663     236.585     -92.403
  C       90.272     235.793     -91.899
  O       91.660     235.502     -91.778
  O       92.610     236.703     -93.889
  O       92.184     237.949     -91.711
  H       91.864     238.558     -92.404
  H       89.702     235.007     -91.450
  H       90.014     235.874     -92.934
  H       90.057     236.717     -91.404

 6  7  8  9  10  11  12  13  14  15  16  27  31  32  33  34  35 0
 6-311+G(2d,p)
 ****
 36  37 0
 6-311+G(2d,p)
 ****
 1  2  3  4  5  17  18  19  20  21  22  23  24  25 0
 3-21G
 ****
 26  28  29  30  38  39  40  41  42  43  44  45 0
 3-21G
 ****


