%nproc=1
%NoSave
%Mem=1900MB
#P OB98/GEN NMR

erre ene a

0 1
  C      -38.642     162.981     291.191
  O      -38.992     161.603     291.334
  P      -39.579     161.096     292.737
  C      -37.864     159.455     293.743
  O      -39.062     159.598     292.986
  C      -37.015     158.302     293.202
  O      -36.176     158.725     292.109
  C      -36.068     157.720     294.238
  O      -36.768     156.925     295.177
  C      -35.087     156.969     293.354
  O      -35.608     155.679     292.987
  C      -35.007     157.877     292.106
  N      -33.780     158.658     292.042
  C      -32.879     158.304     291.035
  O      -33.123     157.352     290.290
  N      -31.716     159.027     290.909
  C      -31.476     160.008     291.719
  N      -30.313     160.690     291.547
  C      -32.396     160.407     292.801
  C      -33.516     159.691     292.909
  O      -41.042     161.310     292.941
  O      -38.719     161.939     293.802
  H      -34.993     155.322     292.318
  H      -39.263     162.085     294.600
  H      -32.154     161.239     293.450
  H      -34.248     159.913     293.681
  H      -35.069     157.276     291.192
  H      -34.131     156.797     293.858
  H      -35.546     158.536     294.759
  H      -37.697     157.521     292.841
  H      -29.695     160.393     290.804
  H      -38.114     159.274     294.792
  H      -30.063     161.501     292.095
  H      -37.313     160.401     293.709
  P      -36.698     157.360     296.719
  C      -35.349     155.260     297.419
  O      -36.521     156.031     297.594
  O      -38.204     157.813     297.037
  O      -35.731     158.459     297.018
  H      -38.197     158.544     297.680
  H      -35.234     154.594     298.284
  H      -34.462     155.896     297.347
  H      -35.438     154.651     296.518
  H      -38.269     163.154     290.203
  H      -37.887     163.233     291.906
  H      -39.508     163.588     291.357

 3  4  5  6  7  8  9  10  11  12  13  23  27  28  29  30  32 0
 6-311+G(2d,p)
 ****
 34  35 0
 6-311+G(2d,p)
 ****
 1  2  14  15  16  17  18  19  20  21  22  24  25  26 0
 3-21G
 ****
 31  33  36  37  38  39  40  41  42  43  44  45  46 0
 3-21G
 ****


