%nproc=1
%NoSave
%Mem=1900MB
#P OB98/GEN NMR

erre ene a

0 1
  C      734.712     295.889     213.815
  O      734.659     294.502     214.122
  P      733.324     293.637     213.891
  C      732.830     293.255     216.406
  O      733.212     292.671     215.189
  C      732.768     292.190     217.508
  O      732.468     292.849     218.772
  C      731.711     291.112     217.287
  O      732.240     289.879     217.798
  C      730.544     291.593     218.132
  O      729.646     290.535     218.483
  C      731.297     292.208     219.320
  N      730.477     293.170     220.062
  C      729.437     292.656     220.868
  O      729.221     291.448     220.916
  N      728.683     293.538     221.592
  C      728.865     294.821     221.469
  N      728.136     295.657     222.243
  C      729.875     295.409     220.542
  C      730.645     294.528     219.908
  O      733.237     292.939     212.586
  O      732.135     294.671     214.171
  H      729.049     290.867     219.186
  H      731.903     295.212     213.367
  H      729.983     296.476     220.445
  H      731.432     294.853     219.236
  H      731.655     291.428     220.002
  H      729.969     292.355     217.588
  H      731.443     290.970     216.232
  H      733.765     291.747     217.605
  H      727.584     295.216     222.982
  H      731.826     293.686     216.283
  H      728.436     296.601     222.441
  H      733.521     294.055     216.675
  P      732.343     288.617     216.807
  C      729.755     288.448     216.631
  O      730.966     287.783     216.912
  O      733.381     287.667     217.612
  O      732.864     288.904     215.441
  H      733.822     287.090     216.965
  H      728.933     287.734     216.752
  H      729.763     288.817     215.615
  H      729.599     289.279     217.338
  H      735.686     296.268     214.043
  H      733.981     296.411     214.397
  H      734.508     296.032     212.774

 3  4  5  6  7  8  9  10  11  12  13  23  27  28  29  30  32 0
 6-311+G(2d,p)
 ****
 34  35 0
 6-311+G(2d,p)
 ****
 1  2  14  15  16  17  18  19  20  21  22  24  25  26 0
 3-21G
 ****
 31  33  36  37  38  39  40  41  42  43  44  45  46 0
 3-21G
 ****


