%nproc=1
%NoSave
%Mem=1900MB
#P OB98/GEN NMR

erre ene a

0 1
  C      182.084      31.977     264.125
  O      182.899      31.728     265.249
  P      182.890      30.282     265.932
  C      181.410      28.971     267.573
  O      181.650      30.221     266.946
  C      180.965      29.175     269.024
  O      180.206      30.402     269.143
  C      180.043      28.077     269.546
  O      180.772      26.907     269.865
  C      179.406      28.770     270.739
  O      180.281      28.728     271.885
  C      179.277      30.226     270.234
  N      174.523      31.320     271.750
  C      175.620      30.900     272.436
  N      176.835      30.591     271.944
  C      176.866      30.728     270.609
  C      175.818      31.124     269.779
  C      174.610      31.448     270.403
  N      173.513      31.945     269.738
  N      176.233      31.121     268.454
  C      177.499      30.722     268.491
  N      177.931      30.546     269.782
  O      184.198      29.829     266.502
  O      182.425      29.306     264.742
  H      180.392      27.783     272.123
  H      183.129      28.641     264.570
  H      175.497      30.797     273.509
  H      178.127      30.579     267.627
  H      179.553      30.953     271.005
  H      178.456      28.323     271.041
  H      179.264      27.853     268.804
  H      181.862      29.257     269.648
  H      182.336      28.383     267.555
  H      172.748      32.280     270.304
  H      173.646      32.330     268.800
  H      180.637      28.424     267.003
  P      180.009      25.595     270.376
  C      178.913      24.829     272.562
  O      179.736      25.798     271.941
  O      180.623      24.291     269.984
  O      178.540      25.750     269.738
  H      178.178      24.869     269.536
  H      177.866      25.033     272.317
  H      179.048      24.880     273.648
  H      179.172      23.817     272.232
  H      182.218      32.989     263.804
  H      181.058      31.818     264.386
  H      182.357      31.313     263.332

 3  4  5  6  7  8  9  10  11  12  22  25  29  30  31  32 0
 6-311+G(2d,p)
 ****
 33  36  37 0
 6-311+G(2d,p)
 ****
 1  2  13  14  15  16  17  18  19  20  21  23  24  26 0
 3-21G
 ****
 27  28  34  35  38  39  40  41  42  43  44  45  46  47  48 0
 3-21G
 ****


