%nproc=1
%NoSave
%Mem=1900MB
#P OB98/GEN NMR

erre ene a

0 1
  C     -153.281    -489.810    -581.379
  O     -153.936    -491.069    -581.182
  P     -153.829    -492.147    -582.367
  C     -151.713    -493.277    -581.313
  O     -153.062    -493.406    -581.738
  C     -151.012    -494.638    -581.378
  O     -149.608    -494.505    -581.054
  C     -151.562    -495.663    -580.398
  O     -152.816    -496.172    -580.826
  C     -150.424    -496.683    -580.384
  O     -150.518    -497.544    -581.530
  C     -149.184    -495.776    -580.507
  N     -148.478    -495.604    -579.242
  C     -147.305    -496.332    -579.093
  O     -146.880    -497.102    -579.955
  N     -146.638    -496.163    -577.913
  C     -147.041    -495.377    -576.872
  O     -146.393    -495.258    -575.836
  C     -148.312    -494.664    -577.066
  C     -148.966    -494.806    -578.220
  O     -152.744    -491.455    -583.320
  O     -155.142    -492.441    -583.011
  H     -152.060    -490.969    -582.824
  H     -149.708    -498.095    -581.527
  H     -145.775    -496.673    -577.790
  H     -148.672    -494.049    -576.251
  H     -149.909    -494.291    -578.380
  H     -148.477    -496.197    -581.231
  H     -150.441    -497.318    -579.495
  H     -151.663    -495.212    -579.404
  H     -151.095    -495.014    -582.405
  H     -151.678    -492.906    -580.283
  H     -151.209    -492.546    -581.949
  P     -154.010    -496.151    -579.749
  C     -155.150    -493.803    -579.634
  O     -155.064    -495.053    -580.262
  O     -153.292    -495.444    -578.505
  O     -154.576    -497.502    -579.454
  H     -152.758    -494.676    -578.762
  H     -155.639    -493.094    -580.308
  H     -154.159    -493.410    -579.375
  H     -155.755    -493.885    -578.721
  H     -153.431    -489.191    -580.519
  H     -153.689    -489.327    -582.242
  H     -152.233    -489.972    -581.523

 3  4  5  6  7  8  9  10  11  12  13  24  28  29  30  31  32 0
 6-311+G(2d,p)
 ****
 33  34 0
 6-311+G(2d,p)
 ****
 1  2  14  15  16  17  18  19  20  21  22  23  25  26  27 0
 3-21G
 ****
 35  36  37  38  39  40  41  42  43  44  45 0
 3-21G
 ****


