%nproc=1
%NoSave
%Mem=1900MB
#P OB98/GEN NMR

erre ene a

0 1
  C     -678.870      -8.085    -448.294
  O     -677.734      -8.675    -447.700
  H     -678.564      -7.577    -449.210
  H     -679.317      -7.350    -447.619
  H     -679.607      -8.852    -448.551
  P     -677.898      -9.432    -446.298
  C     -675.611      -8.792    -445.283
  O     -676.425      -9.837    -445.814
  C     -674.163      -9.274    -445.134
  O     -674.165     -10.400    -444.227
  C     -673.555      -9.730    -446.471
  O     -672.314      -9.104    -446.766
  C     -673.569     -11.256    -446.357
  O     -672.587     -11.912    -447.132
  C     -673.453     -11.488    -444.845
  N     -673.983     -12.774    -444.403
  C     -673.071     -13.792    -444.155
  O     -671.846     -13.692    -444.263
  N     -673.612     -14.993    -443.760
  C     -674.937     -15.261    -443.593
  O     -675.360     -16.352    -443.232
  C     -675.855     -14.146    -443.889
  C     -675.347     -12.974    -444.275
  O     -678.891     -10.546    -446.277
  O     -678.307      -8.267    -445.276
  H     -672.837     -11.810    -448.073
  H     -679.267      -8.308    -445.100
  H     -672.956     -15.734    -443.572
  H     -676.917     -14.330    -443.780
  H     -675.994     -12.136    -444.498
  H     -672.409     -11.432    -444.527
  H     -674.542     -11.615    -446.701
  H     -674.193      -9.439    -447.314
  H     -673.571      -8.476    -444.674
  H     -676.022      -8.508    -444.312
  H     -675.647      -7.925    -445.954
  P     -672.111      -7.953    -447.859
  C     -669.762      -8.673    -448.782
  O     -670.540      -7.728    -448.058
  O     -672.952      -6.739    -447.677
  O     -672.570      -8.670    -449.228
  H     -672.963      -7.969    -449.792
  H     -668.742      -8.351    -448.807
  H     -670.136      -8.752    -449.782
  H     -669.823      -9.627    -448.302

 6  7  8  9  10  11  12  13  14  15  16  26  31  32  33  34  35 0
 6-311+G(2d,p)
 ****
 36  37 0
 6-311+G(2d,p)
 ****
 1  2  3  4  5  17  18  19  20  21  22  23  24  25 0
 3-21G
 ****
 27  28  29  30  38  39  40  41  42  43  44  45 0
 3-21G
 ****


