%nproc=1
%NoSave
%Mem=1900MB
#P OB98/GEN NMR

erre ene a

0 1
  C       50.602     395.237     281.706
  O       50.098     396.426     281.120
  P       49.392     397.493     282.089
  C       51.482     398.989     282.477
  O       50.541     398.087     283.043
  C       52.220     399.763     283.574
  O       53.366     400.433     282.979
  C       51.375     400.837     284.277
  O       51.806     400.875     285.641
  C       51.782     402.101     283.537
  O       51.453     403.302     284.212
  C       53.270     401.830     283.337
  N       54.709     406.590     282.148
  C       54.204     406.060     283.285
  N       53.853     404.783     283.530
  C       54.077     404.013     282.454
  C       54.572     404.415     281.220
  C       54.897     405.772     281.088
  N       55.404     406.313     279.919
  N       54.639     403.346     280.346
  C       54.198     402.318     281.044
  N       53.863     402.667     282.322
  O       48.535     396.572     283.076
  O       48.543     398.516     281.396
  H       51.899     403.329     285.079
  H       47.674     396.986     283.283
  H       54.065     406.758     284.109
  H       54.077     401.312     280.659
  H       53.841     401.974     284.264
  H       51.266     402.126     282.568
  H       50.300     400.635     284.251
  H       52.604     399.043     284.307
  H       50.958     399.709     281.842
  H       55.413     407.321     279.858
  H       55.341     405.744     279.081
  H       52.187     398.432     281.849
  P       50.949     401.711     286.708
  C       49.433     399.720     287.288
  O       49.510     400.996     286.685
  O       50.654     403.056     285.874
  O       51.586     401.932     288.034
  H       50.294     402.853     284.988
  H       48.386     399.397     287.291
  H       49.795     399.756     288.317
  H       50.021     399.002     286.707
  H       51.042     394.624     280.947
  H       49.802     394.704     282.176
  H       51.342     395.486     282.437

 3  4  5  6  7  8  9  10  11  12  22  25  29  30  31  32 0
 6-311+G(2d,p)
 ****
 33  36  37 0
 6-311+G(2d,p)
 ****
 1  2  13  14  15  16  17  18  19  20  21  23  24  26 0
 3-21G
 ****
 27  28  34  35  38  39  40  41  42  43  44  45  46  47  48 0
 3-21G
 ****


