%nproc=1
%NoSave
%Mem=1900MB
#P OB98/GEN NMR

erre ene a

0 1
  C       78.419     443.555    -368.313
  O       79.791     443.650    -367.957
  P       80.225     443.090    -366.514
  C       81.012     445.471    -365.846
  O       81.343     444.092    -365.957
  C       82.266     446.338    -365.681
  O       82.812     446.122    -364.354
  C       83.367     446.039    -366.701
  O       83.996     447.284    -367.038
  C       84.352     445.185    -365.921
  O       85.663     445.261    -366.473
  C       84.201     445.772    -364.512
  N       84.639     444.836    -363.476
  C       85.969     444.929    -363.057
  O       86.734     445.714    -363.614
  N       86.407     444.090    -362.059
  C       85.621     443.169    -361.604
  N       86.104     442.367    -360.613
  C       84.244     442.961    -362.105
  C       83.818     443.835    -363.012
  O       81.058     441.771    -366.887
  O       79.086     442.802    -365.593
  H       86.268     444.722    -365.913
  H       80.961     441.094    -366.190
  H       83.643     442.157    -361.712
  H       82.813     443.769    -363.424
  H       84.793     446.697    -364.412
  H       84.028     444.138    -365.937
  H       82.991     445.562    -367.608
  H       81.963     447.388    -365.738
  H       87.053     442.522    -360.298
  H       80.382     445.620    -364.965
  H       85.555     441.623    -360.195
  H       80.443     445.783    -366.731
  P       83.569     447.982    -368.420
  C       86.093     448.097    -368.912
  O       84.867     448.803    -368.880
  O       82.611     449.155    -367.902
  O       82.895     447.148    -369.456
  H       82.231     449.626    -368.667
  H       86.859     448.731    -369.374
  H       85.991     447.180    -369.502
  H       86.410     447.851    -367.892
  H       78.275     443.963    -369.292
  H       77.829     444.103    -367.608
  H       78.119     442.528    -368.307

 3  4  5  6  7  8  9  10  11  12  13  21  23  27  28  29  30  32 0
 6-311+G(2d,p)
 ****
 34  35 0
 6-311+G(2d,p)
 ****
 1  2  14  15  16  17  18  19  20  22  24  25  26 0
 3-21G
 ****
 31  33  36  37  38  39  40  41  42  43  44  45  46 0
 3-21G
 ****


