%nproc=1
%NoSave
%Mem=1900MB
#P OB98/GEN NMR

erre ene a

0 1
  C     -709.798     -42.517    1048.202
  O     -710.495     -43.673    1047.786
  H     -710.519     -41.751    1048.482
  H     -709.175     -42.136    1047.386
  H     -709.170     -42.756    1049.073
  P     -709.620     -44.894    1047.233
  C     -710.399     -46.428    1049.183
  O     -710.299     -46.246    1047.771
  C     -711.561     -47.379    1049.481
  O     -712.821     -46.706    1049.223
  C     -711.588     -48.634    1048.629
  O     -710.665     -49.621    1049.063
  C     -713.027     -49.075    1048.787
  O     -713.208     -49.856    1049.979
  C     -713.778     -47.727    1048.877
  N     -714.489     -47.424    1047.638
  C     -715.830     -47.796    1047.604
  O     -716.409     -48.339    1048.543
  N     -716.481     -47.537    1046.421
  C     -715.921     -47.017    1045.291
  O     -716.560     -46.881    1044.247
  C     -714.498     -46.670    1045.378
  C     -713.856     -46.884    1046.531
  O     -708.265     -44.787    1048.079
  O     -709.358     -44.872    1045.760
  H     -707.549     -44.442    1047.507
  H     -714.141     -50.131    1049.975
  H     -717.461     -47.795    1046.381
  H     -714.026     -46.263    1044.501
  H     -712.799     -46.649    1046.626
  H     -714.520     -47.765    1049.689
  H     -713.342     -49.684    1047.947
  H     -711.408     -48.370    1047.573
  H     -711.528     -47.638    1050.547
  H     -710.595     -45.465    1049.663
  H     -709.452     -46.832    1049.558
  P     -709.783     -50.363    1047.950
  C     -707.979     -48.450    1048.142
  O     -708.270     -49.847    1048.155
  O     -710.288     -49.630    1046.617
  O     -709.949     -51.847    1047.965
  H     -710.611     -48.733    1046.803
  H     -706.930     -48.303    1048.293
  H     -708.523     -47.965    1048.925
  H     -708.266     -48.035    1047.198

 6  7  8  9  10  11  12  13  14  15  16  27  31  32  33  34  35 0
 6-311+G(2d,p)
 ****
 36  37 0
 6-311+G(2d,p)
 ****
 1  2  3  4  5  17  18  19  20  21  22  23  24  25 0
 3-21G
 ****
 26  28  29  30  38  39  40  41  42  43  44  45 0
 3-21G
 ****


