%nproc=1
%NoSave
%Mem=1900MB
#P OB98/GEN NMR

erre ene a

0 1
  C     -273.712    -151.670     172.862
  O     -273.967    -152.395     171.674
  H     -273.055    -152.266     173.501
  H     -274.646    -151.485     173.400
  H     -273.216    -150.721     172.638
  P     -274.786    -151.681     170.496
  C     -274.219    -153.665     168.947
  O     -275.241    -152.833     169.481
  C     -274.841    -154.908     168.312
  O     -275.790    -154.525     167.293
  C     -273.832    -155.813     167.620
  O     -273.096    -156.574     168.556
  C     -274.750    -156.627     166.719
  O     -275.374    -157.691     167.452
  C     -275.787    -155.566     166.290
  N     -275.523    -155.016     164.960
  C     -276.368    -155.440     163.938
  O     -277.276    -156.254     164.102
  N     -276.115    -154.911     162.700
  C     -275.058    -154.114     162.371
  O     -274.826    -153.738     161.226
  C     -274.184    -153.721     163.485
  C     -274.454    -154.180     164.710
  O     -274.115    -150.507     169.860
  O     -276.163    -151.257     171.196
  H     -275.942    -157.264     168.126
  H     -276.160    -150.297     171.361
  H     -276.705    -155.215     161.942
  H     -273.342    -153.077     163.269
  H     -273.819    -153.908     165.544
  H     -276.795    -156.003     166.286
  H     -274.212    -157.082     165.886
  H     -273.160    -155.218     166.993
  H     -275.386    -155.457     169.094
  H     -273.552    -153.967     169.761
  H     -273.646    -153.095     168.209
  P     -271.528    -156.807     168.341
  C     -271.035    -156.126     170.769
  O     -270.878    -157.130     169.772
  O     -270.826    -155.756     167.548
  O     -271.457    -158.221     167.590
  H     -271.031    -158.103     166.720
  H     -270.566    -156.447     171.675
  H     -272.077    -155.960     170.947
  H     -270.580    -155.217     170.434

 6  7  8  9  10  11  12  13  14  15  16  26  31  32  33  34  35 0
 6-311+G(2d,p)
 ****
 36  37 0
 6-311+G(2d,p)
 ****
 1  2  3  4  5  17  18  19  20  21  22  23  24  25 0
 3-21G
 ****
 27  28  29  30  38  39  40  41  42  43  44  45 0
 3-21G
 ****


