%nproc=1
%NoSave
%Mem=1900MB
#P OB98/GEN NMR

erre ene a

0 1
  C     1281.786    1278.620    -337.522
  O     1281.328    1279.820    -336.924
  H     1281.104    1278.359    -338.334
  H     1281.805    1277.807    -336.805
  H     1282.790    1278.773    -337.946
  P     1282.099    1280.362    -335.630
  C     1280.027    1281.496    -334.575
  O     1281.321    1281.676    -335.144
  C     1279.000    1282.406    -335.240
  O     1278.610    1281.829    -336.514
  C     1277.725    1282.630    -334.412
  O     1277.209    1283.922    -334.713
  C     1276.810    1281.551    -334.981
  O     1275.481    1281.751    -334.616
  C     1277.167    1281.657    -336.470
  N     1276.743    1280.497    -337.233
  C     1275.529    1280.631    -337.929
  O     1274.896    1281.686    -337.883
  N     1275.063    1279.576    -338.667
  C     1275.723    1278.444    -338.638
  N     1275.199    1277.419    -339.372
  C     1276.963    1278.247    -337.862
  C     1277.406    1279.291    -337.206
  O     1283.578    1280.538    -335.779
  O     1281.752    1279.288    -334.484
  H     1275.184    1282.652    -334.848
  H     1282.516    1278.711    -334.333
  H     1277.452    1277.259    -337.858
  H     1278.329    1279.246    -336.600
  H     1276.715    1282.557    -336.912
  H     1277.105    1280.565    -334.588
  H     1277.882    1282.514    -333.333
  H     1279.491    1283.377    -335.460
  H     1274.333    1277.594    -339.887
  H     1280.109    1281.721    -333.512
  H     1275.596    1276.484    -339.407
  H     1279.708    1280.446    -334.684
  P     1276.321    1284.776    -333.686
  C     1274.182    1285.267    -335.024
  O     1275.394    1285.792    -334.507
  O     1277.098    1285.420    -332.592
  O     1275.278    1283.718    -333.085
  H     1275.051    1283.991    -332.170
  H     1273.655    1286.037    -335.548
  H     1273.577    1284.906    -334.218
  H     1274.399    1284.463    -335.695

 6  7  8  9  10  11  12  13  14  15  16  26  30  31  32  33  35 0
 6-311+G(2d,p)
 ****
 37  38 0
 6-311+G(2d,p)
 ****
 1  2  3  4  5  17  18  19  20  21  22  23  24  25 0
 3-21G
 ****
 27  28  29  34  36  39  40  41  42  43  44  45  46 0
 3-21G
 ****


