%nproc=1
%NoSave
%Mem=1900MB
#P OB98/GEN NMR

erre ene a

0 1
  C     -264.958     -73.431     -13.595
  O     -264.456     -73.926     -12.371
  H     -264.122     -73.039     -14.181
  H     -265.668     -72.620     -13.415
  H     -265.439     -74.230     -14.165
  P     -265.489     -74.559     -11.319
  C     -265.312     -72.649      -9.577
  O     -266.111     -73.281     -10.564
  C     -266.192     -72.105      -8.455
  O     -266.948     -70.956      -8.890
  C     -267.243     -73.079      -7.935
  O     -266.713     -74.122      -7.134
  C     -268.114     -72.124      -7.138
  O     -267.462     -71.793      -5.900
  C     -268.163     -70.908      -8.092
  N     -269.344     -70.915      -8.954
  C     -270.543     -70.479      -8.378
  O     -270.582     -70.121      -7.202
  N     -271.687     -70.490      -9.141
  C     -271.642     -70.921     -10.363
  N     -272.805     -70.916     -11.070
  C     -270.405     -71.409     -11.003
  C     -269.307     -71.376     -10.252
  O     -264.947     -75.629     -10.429
  O     -266.727     -75.038     -12.212
  H     -266.612     -71.375      -6.130
  H     -267.394     -75.448     -11.609
  H     -270.426     -71.785     -12.014
  H     -268.360     -71.724     -10.649
  H     -268.145     -69.967      -7.526
  H     -269.092     -72.539      -6.888
  H     -267.840     -73.487      -8.761
  H     -265.525     -71.767      -7.650
  H     -273.638     -70.578     -10.606
  H     -264.748     -71.843     -10.058
  H     -272.878     -71.305     -12.002
  H     -264.608     -73.368      -9.147
  P     -267.092     -75.627      -7.554
  C     -269.409     -75.758      -6.354
  O     -268.693     -75.696      -7.578
  O     -266.682     -76.477      -6.264
  O     -266.437     -76.122      -8.804
  H     -265.807     -76.892      -6.388
  H     -270.459     -75.799      -6.557
  H     -269.192     -74.889      -5.769
  H     -269.116     -76.634      -5.813

 6  7  8  9  10  11  12  13  14  15  16  26  30  31  32  33  35 0
 6-311+G(2d,p)
 ****
 37  38 0
 6-311+G(2d,p)
 ****
 1  2  3  4  5  17  18  19  20  21  22  23  24  25 0
 3-21G
 ****
 27  28  29  34  36  39  40  41  42  43  44  45  46 0
 3-21G
 ****


