%nproc=1
%NoSave
%Mem=1900MB
#P OB98/GEN NMR

erre ene a

0 1
  C      586.047     516.975    -584.933
  O      585.539     516.829    -583.619
  H      587.050     516.533    -584.968
  H      586.115     518.029    -585.204
  H      585.407     516.445    -585.644
  P      584.083     517.459    -583.346
  C      585.310     519.164    -581.847
  O      584.242     518.223    -581.939
  C      585.358     519.788    -580.452
  O      584.050     520.344    -580.146
  C      585.699     518.782    -579.344
  O      586.488     519.442    -578.344
  C      584.332     518.437    -578.757
  O      584.421     517.952    -577.420
  C      583.605     519.780    -578.899
  N      579.613     518.670    -575.940
  C      580.904     518.946    -575.652
  N      581.899     519.246    -576.507
  C      581.441     519.323    -577.768
  C      580.151     519.069    -578.209
  C      579.206     518.723    -577.229
  N      577.898     518.417    -577.508
  N      580.083     519.198    -579.584
  C      581.304     519.532    -579.966
  N      582.159     519.603    -578.896
  O      582.945     516.503    -583.421
  O      584.049     518.671    -584.398
  H      583.521     517.931    -577.031
  H      584.878     519.186    -584.375
  H      581.171     518.889    -574.587
  H      581.623     519.728    -580.988
  H      583.851     520.491    -578.089
  H      583.846     517.671    -579.365
  H      586.214     517.900    -579.712
  H      586.066     520.629    -580.457
  H      585.175     519.965    -582.596
  H      577.281     518.168    -576.748
  H      577.573     518.447    -578.468
  H      586.246     518.637    -582.062
  P      588.077     519.464    -578.511
  C      588.949     518.011    -576.572
  O      588.761     519.336    -577.062
  O      588.619     520.567    -579.366
  O      588.403     518.040    -579.172
  H      589.065     518.139    -579.880
  H      589.409     518.050    -575.607
  H      589.578     517.468    -577.245
  H      588.001     517.521    -576.496

 6  7  8  9  10  11  12  13  14  15  25  28  32  33  34  35 0
 6-311+G(2d,p)
 ****
 36  39  40 0
 6-311+G(2d,p)
 ****
 1  2  3  4  5  16  17  18  19  20  21  22  23  24 0
 3-21G
 ****
 26  27  29  30  31  37  38  41  42  43  44  45  46  47 0
 3-21G
 ****
 48 0
 3-21G
 ****


