%nproc=1
%NoSave
%Mem=1900MB
#P OB98/GEN NMR

erre ene a

0 1
  C       31.613     545.041     523.464
  O       30.273     544.603     523.367
  H       32.136     544.860     522.516
  H       31.623     546.114     523.665
  H       32.124     544.513     524.274
  P       30.038     543.053     523.025
  C       28.234     543.205     524.886
  O       28.594     542.652     523.625
  C       26.814     542.787     525.243
  O       25.908     543.294     524.226
  C       26.602     541.263     525.360
  O       26.101     540.926     526.663
  C       25.507     540.958     524.342
  O       24.560     540.008     524.805
  C       24.870     542.322     524.084
  N       20.464     542.129     521.527
  C       20.734     542.417     522.824
  N       21.938     542.557     523.415
  C       22.939     542.400     522.528
  C       22.811     542.121     521.172
  C       21.502     541.963     520.680
  N       21.228     541.620     519.372
  N       24.056     542.009     520.580
  C       24.910     542.175     521.567
  N       24.282     542.392     522.772
  O       31.074     542.303     523.989
  O       30.250     542.677     521.601
  H       24.173     540.369     525.624
  H       31.573     541.638     523.490
  H       19.871     542.547     523.475
  H       25.996     542.095     521.490
  H       24.083     542.551     524.828
  H       25.981     540.568     523.423
  H       27.506     540.690     525.137
  H       26.537     543.279     526.195
  H       28.285     544.296     524.833
  H       20.270     541.418     519.139
  H       21.998     541.394     518.761
  H       28.953     542.866     525.644
  P       27.198     540.452     527.750
  C       26.714     541.473     530.101
  O       26.474     540.418     529.171
  O       28.167     541.736     527.868
  O       27.951     539.218     527.352
  H       29.060     541.466     528.137
  H       26.154     541.294     530.995
  H       26.410     542.404     529.670
  H       27.757     541.512     530.335

 6  7  8  9  10  11  12  13  14  15  25  28  32  33  34  35 0
 6-311+G(2d,p)
 ****
 36  39  40 0
 6-311+G(2d,p)
 ****
 1  2  3  4  5  16  17  18  19  20  21  22  23  24 0
 3-21G
 ****
 26  27  29  30  31  37  38  41  42  43  44  45  46  47  48 0
 3-21G
 ****


