%nproc=1
%NoSave
%Mem=1900MB
#P OB98/GEN NMR

erre ene a

0 1
  C       34.938    -256.755     213.290
  O       35.334    -258.004     213.817
  H       34.491    -256.160     214.091
  H       34.194    -256.898     212.501
  H       35.803    -256.218     212.891
  P       36.057    -259.018     212.805
  C       38.522    -258.618     213.529
  O       37.521    -258.418     212.538
  C       39.888    -258.748     212.864
  O       39.811    -259.715     211.792
  C       40.397    -257.463     212.221
  O       40.946    -256.574     213.175
  C       41.424    -258.010     211.238
  O       42.684    -258.256     211.875
  C       40.791    -259.338     210.800
  N       41.611    -259.736     205.786
  C       42.410    -259.955     206.852
  N       42.108    -259.844     208.163
  C       40.827    -259.472     208.322
  C       39.897    -259.207     207.332
  C       40.331    -259.355     206.005
  N       39.528    -259.098     204.920
  N       38.698    -258.807     207.889
  C       38.898    -258.839     209.190
  N       40.167    -259.240     209.497
  O       35.283    -258.757     211.426
  O       36.019    -260.454     213.206
  H       43.294    -258.563     211.177
  H       34.565    -259.409     211.326
  H       43.429    -260.256     206.622
  H       38.165    -258.575     209.943
  H       41.526    -260.148     210.748
  H       41.604    -257.310     210.422
  H       39.591    -256.977     211.657
  H       40.604    -259.121     213.607
  H       38.302    -259.537     214.084
  H       38.509    -257.770     214.222
  H       39.914    -259.203     203.995
  H       38.607    -258.711     205.072
  P       41.428    -255.128     212.685
  C       39.473    -253.692     213.622
  O       40.119    -254.224     212.476
  O       41.945    -255.398     211.196
  O       42.481    -254.499     213.535
  H       42.917    -255.464     211.179
  H       38.624    -253.117     213.318
  H       40.155    -253.065     214.157
  H       39.153    -254.493     214.255

 6  7  8  9  10  11  12  13  14  15  25  28  32  33  34  35 0
 6-311+G(2d,p)
 ****
 36  37  40 0
 6-311+G(2d,p)
 ****
 1  2  3  4  5  16  17  18  19  20  21  22  23  24 0
 3-21G
 ****
 26  27  29  30  31  38  39 41  42  43  44  45  46  47  48 0
 3-21G
 ****


