%nproc=1
%NoSave
%Mem=1900MB
#P OB98/GEN NMR

erre ene a

0 1
  C     -549.042     454.226     561.086
  O     -550.091     454.868     560.394
  H     -549.413     453.922     562.073
  H     -548.200     454.899     561.225
  H     -548.720     453.328     560.541
  P     -549.776     455.584     558.991
  C     -550.577     453.750     557.391
  O     -549.452     454.379     557.977
  C     -550.187     452.659     556.413
  O     -549.489     453.245     555.279
  C     -549.254     451.587     557.021
  O     -549.722     450.289     556.657
  C     -547.903     451.861     556.360
  O     -547.070     450.710     556.346
  C     -548.362     452.397     554.989
  N     -547.312     453.138     554.294
  C     -546.593     452.421     553.315
  O     -546.844     451.223     553.093
  N     -545.594     453.063     552.635
  C     -545.287     454.281     552.942
  N     -544.269     454.857     552.233
  C     -545.974     455.052     553.991
  C     -546.968     454.418     554.615
  O     -548.729     456.655     559.058
  O     -551.198     456.113     558.476
  H     -547.532     450.006     555.838
  H     -551.067     456.824     557.809
  H     -545.666     456.059     554.211
  H     -547.529     454.911     555.407
  H     -548.686     451.576     554.344
  H     -547.387     452.664     556.919
  H     -549.184     451.649     558.106
  H     -551.093     452.199     556.002
  H     -543.829     454.295     551.510
  H     -551.180     454.518     556.879
  H     -543.960     455.798     552.382
  H     -551.183     453.300     558.200
  P     -550.320     449.397     557.849
  C     -552.752     449.383     556.939
  O     -551.884     449.752     558.009
  O     -549.655     450.053     559.160
  O     -550.001     447.940     557.738
  H     -548.903     449.504     559.452
  H     -553.754     449.676     557.175
  H     -552.714     448.323     556.798
  H     -552.439     449.874     556.041

 6  7  8  9  10  11  12  13  14  15  16  26  30  31  32  33  35 0
 6-311+G(2d,p)
 ****
 37  38 0
 6-311+G(2d,p)
 ****
 1  2  3  4  5  17  18  19  20  21  22  23  24  25 0
 3-21G
 ****
 27  28  29  34  36  39  40  41  42  43  44  45  46 0
 3-21G
 ****


