%nproc=1
%NoSave
%Mem=1900MB
#P OB98/GEN NMR

erre ene a

0 1
  C      -23.743    -235.930     200.777
  O      -24.874    -236.694     201.205
  P      -26.170    -235.846     201.638
  C      -25.170    -234.768     203.774
  O      -25.663    -234.556     202.460
  C      -25.250    -233.496     204.620
  O      -25.144    -233.800     206.042
  C      -24.156    -232.468     204.291
  O      -24.735    -231.168     204.464
  C      -23.140    -232.700     205.405
  O      -22.259    -231.593     205.553
  C      -24.088    -232.958     206.576
  N      -21.132    -232.171     210.589
  C      -21.506    -231.307     209.579
  N      -21.070    -230.028     209.680
  N      -22.244    -231.660     208.563
  C      -22.641    -232.964     208.615
  C      -22.350    -233.905     209.572
  C      -21.498    -233.506     210.679
  O      -21.138    -234.227     211.604
  N      -22.963    -235.111     209.292
  C      -23.560    -234.894     208.132
  N      -23.449    -233.601     207.714
  O      -26.855    -236.766     202.751
  O      -27.103    -235.553     200.506
  H      -22.807    -230.779     205.526
  H      -27.610    -237.257     202.366
  H      -20.544    -231.845     211.346
  H      -24.119    -235.631     207.577
  H      -24.540    -232.037     206.956
  H      -22.539    -233.592     205.185
  H      -20.540    -229.673     210.465
  H      -23.716    -232.568     203.294
  H      -21.362    -229.372     208.973
  H      -26.238    -233.039     204.458
  H      -24.124    -235.098     203.735
  H      -25.728    -235.594     204.239
  P      -24.451    -230.074     203.327
  C      -23.567    -228.123     204.798
  O      -23.265    -229.138     203.854
  O      -25.744    -229.115     203.418
  O      -24.291    -230.625     201.952
  H      -26.010    -228.848     202.515
  H      -22.674    -227.909     205.390
  H      -24.375    -228.433     205.476
  H      -23.878    -227.214     204.270
  H      -22.944    -236.592     200.515
  H      -23.427    -235.286     201.571
  H      -24.012    -235.341     199.925

 3  4  5  6  7  8  9  10  11  12  23  26  30  31 0
 6-311+G(2d,p)
 ****
 33  35  36  37  38 0
 6-311+G(2d,p)
 ****
 1  2  13  14  15  16  17  18  19  20  21  22  24  25 0
 3-21G
 ****
 27  28  29  32  34  39  40  41  42  43  44  45  46  47  48  49 0
 3-21G
 ****


