%nproc=1
%NoSave
%Mem=1900MB
#P OB98/GEN NMR

erre ene a

0 1
  C      252.096    -279.127     199.046
  O      251.064    -279.006     200.006
  H      253.018    -279.415     199.557
  H      252.253    -278.167     198.546
  H      251.844    -279.895     198.309
  P      249.580    -278.763     199.443
  C      248.301    -279.616     201.573
  O      248.660    -278.531     200.735
  C      247.573    -279.116     202.822
  O      248.544    -278.519     203.717
  C      246.498    -278.067     202.529
  O      245.416    -278.260     203.443
  C      247.196    -276.755     202.847
  O      246.271    -275.714     203.146
  C      248.109    -277.174     204.009
  N      249.241    -276.266     204.185
  C      249.181    -275.392     205.273
  O      248.203    -275.399     206.023
  N      250.204    -274.501     205.467
  C      251.176    -274.442     204.611
  N      252.148    -273.520     204.844
  C      251.257    -275.314     203.422
  C      250.272    -276.199     203.279
  O      249.175    -280.231     198.946
  O      249.482    -277.708     198.394
  H      245.695    -275.573     202.363
  H      249.411    -280.931     199.576
  H      252.081    -275.219     202.730
  H      250.257    -276.884     202.440
  H      247.542    -277.204     204.950
  H      247.797    -276.432     201.989
  H      246.130    -278.114     201.501
  H      247.148    -279.979     203.346
  H      252.040    -272.927     205.656
  H      249.192    -280.177     201.872
  H      252.919    -273.348     204.216
  H      247.655    -280.287     200.999
  P      244.331    -279.398     203.149
  C      244.943    -280.499     205.408
  O      243.902    -280.089     204.530
  O      244.664    -280.340     202.042
  O      243.021    -278.545     202.774
  H      242.578    -278.992     202.027
  H      244.517    -280.941     206.284
  H      245.530    -279.649     205.687
  H      245.565    -281.216     204.914

 6  7  8  9  10  11  12  13  14  15  16  26  30  31  32  33  35 0
 6-311+G(2d,p)
 ****
 37  38 0
 6-311+G(2d,p)
 ****
 1  2  3  4  5  17  18  19  20  21  22  23  24  25 0
 3-21G
 ****
 27  28  29  34  36  39  40  41  42  43  44  45  46 0
 3-21G
 ****


