%nproc=1
%NoSave
%Mem=1900MB
#P OB98/GEN NMR

erre ene a

0 1
  C       70.118     -34.708    -160.817
  O       70.655     -35.902    -161.336
  H       69.513     -34.953    -159.939
  H       69.470     -34.227    -161.555
  H       70.914     -34.025    -160.514
  P       71.558     -35.846    -162.664
  C       73.872     -35.377    -161.659
  O       73.012     -36.366    -162.208
  C       75.119     -36.012    -161.043
  O       76.130     -34.990    -160.829
  C       74.861     -36.697    -159.692
  O       75.470     -37.989    -159.682
  C       75.566     -35.793    -158.694
  O       75.937     -36.468    -157.496
  C       76.724     -35.267    -159.548
  N       77.349     -34.091    -158.959
  C       78.322     -34.333    -157.985
  O       78.613     -35.489    -157.673
  N       78.902     -33.266    -157.350
  C       78.510     -32.063    -157.628
  N       79.105     -31.051    -156.942
  C       77.466     -31.762    -158.630
  C       76.936     -32.813    -159.254
  O       71.548     -34.532    -163.368
  O       71.024     -37.050    -163.573
  H       76.420     -35.836    -156.919
  H       71.264     -36.871    -164.512
  H       77.171     -30.742    -158.821
  H       76.162     -32.692    -160.004
  H       77.491     -36.039    -159.688
  H       74.898     -34.965    -158.421
  H       73.802     -36.801    -159.459
  H       75.544     -36.716    -161.770
  H       79.811     -31.302    -156.259
  H       73.316     -34.812    -160.901
  H       78.866     -30.078    -157.055
  H       74.177     -34.699    -162.462
  P       74.470     -39.245    -159.709
  C       74.887     -39.626    -162.242
  O       74.892     -40.187    -160.937
  O       73.082     -38.599    -160.174
  O       74.343     -39.932    -158.391
  H       72.451     -38.600    -159.430
  H       75.188     -40.369    -162.951
  H       75.568     -38.801    -162.278
  H       73.901     -39.285    -162.480

 6  7  8  9  10  11  12  13  14  15  16  26  30  31  32  33  35 0
 6-311+G(2d,p)
 ****
 37  38 0
 6-311+G(2d,p)
 ****
 1  2  3  4  5  17  18  19  20  21  22  23  24  25 0
 3-21G
 ****
 27  28  29  34  36  39  40  41  42  43  44  45  46 0
 3-21G
 ****


