%nproc=1
%NoSave
%Mem=1900MB
#P OB98/GEN NMR

erre ene a

0 1
  C       93.373     491.584    1335.051
  O       93.110     491.930    1333.695
  H       93.854     492.443    1335.543
  H       94.046     490.730    1335.100
  H       92.433     491.373    1335.572
  P       92.272     490.922    1332.791
  C       94.418     489.581    1332.256
  O       93.292     490.281    1331.735
  C       95.092     488.776    1331.155
  O       94.300     487.585    1330.841
  C       95.233     489.527    1329.825
  O       96.296     490.475    1329.882
  C       95.450     488.386    1328.860
  O       96.826     487.943    1328.878
  C       94.512     487.302    1329.436
  N       93.227     487.212    1328.724
  C       93.197     486.361    1327.602
  O       94.192     485.763    1327.194
  N       92.003     486.280    1326.944
  C       90.881     487.027    1327.238
  O       89.871     486.992    1326.564
  C       90.985     487.916    1328.401
  C       92.134     487.958    1329.094
  O       91.015     491.462    1332.203
  O       91.974     489.691    1333.783
  H       96.928     487.351    1328.106
  H       91.027     489.722    1334.071
  H       91.957     485.693    1326.140
  H       90.120     488.516    1328.665
  H       92.214     488.622    1329.947
  H       94.991     486.313    1329.386
  H       95.217     488.662    1327.824
  H       94.290     490.039    1329.571
  H       96.098     488.438    1331.512
  H       94.077     488.896    1333.047
  H       95.116     490.305    1332.700
  P       96.041     491.996    1329.455
  C       95.865     491.137    1327.052
  O       96.399     492.124    1327.903
  O       96.649     493.029    1330.355
  O       94.432     492.136    1329.475
  H       94.176     492.810    1330.121
  H       96.173     491.329    1326.045
  H       94.797     491.157    1327.108
  H       96.220     490.174    1327.356

 6  7  8  9  10  11  12  13  14  15  16  26  31  32  33  34  35 0
 6-311+G(2d,p)
 ****
 36  37 0
 6-311+G(2d,p)
 ****
 1  2  3  4  5  17  18  19  20  21  22  23  24  25 0
 3-21G
 ****
 27  28  29  30  38  39  40  41  42  43  44  45 0
 3-21G
 ****


