%nproc=1
%NoSave
%Mem=1900MB
#P OB98/GEN NMR

erre ene a

0 1
  C      -74.535      46.846     117.399
  O      -74.367      46.728     116.001
  H      -73.635      47.301     117.822
  H      -74.674      45.858     117.845
  H      -75.394      47.481     117.627
  P      -75.652      46.251     115.158
  C      -74.657      43.825     115.295
  O      -75.783      44.675     115.431
  C      -75.069      42.476     114.698
  O      -76.065      41.870     115.562
  C      -75.674      42.582     113.294
  O      -75.248      41.449     112.531
  C      -77.170      42.509     113.543
  O      -77.879      42.055     112.389
  C      -77.235      41.586     114.769
  N      -78.464      41.770     115.540
  C      -79.617      41.143     115.051
  O      -79.573      40.494     114.003
  N      -80.797      41.304     115.728
  C      -80.842      42.084     116.770
  N      -82.049      42.217     117.386
  C      -79.662      42.803     117.293
  C      -78.519      42.595     116.641
  O      -75.104      46.335     113.656
  O      -76.884      47.052     115.414
  H      -78.807      41.870     112.660
  H      -74.192      46.009     113.554
  H      -79.755      43.452     118.154
  H      -77.600      43.081     116.965
  H      -77.178      40.533     114.459
  H      -77.552      43.505     113.801
  H      -75.397      43.497     112.772
  H      -74.198      41.811     114.707
  H      -82.837      41.721     116.987
  H      -74.183      43.662     116.270
  H      -82.210      42.834     118.170
  H      -73.932      44.321     114.639
  P      -74.399      41.680     111.192
  C      -76.508      42.587     110.006
  O      -75.132      42.796     110.298
  O      -74.005      40.443     110.452
  O      -73.102      42.467     111.722
  H      -72.327      42.133     111.221
  H      -76.873      43.396     109.408
  H      -77.063      42.540     110.919
  H      -76.623      41.668     109.470

 6  7  8  9  10  11  12  13  14  15  16  26  30  31  32  33  35 0
 6-311+G(2d,p)
 ****
 37  38 0
 6-311+G(2d,p)
 ****
 1  2  3  4  5  17  18  19  20  21  22  23  24  25 0
 3-21G
 ****
 27  28  29  34  36  39  40  41  42  43  44  45  46 0
 3-21G
 ****


