%nproc=1
%NoSave
%Mem=1900MB
#P OB98/GEN NMR

erre ene a

0 1
  C      821.931     303.712     497.059
  O      822.958     304.388     496.359
  H      821.590     304.349     497.886
  H      822.313     302.776     497.475
  H      821.083     303.510     496.398
  P      823.476     303.707     495.008
  C      826.016     303.986     495.617
  O      824.939     303.112     495.304
  C      826.842     303.418     496.764
  O      826.015     303.133     497.912
  C      827.488     302.073     496.449
  O      828.563     302.189     495.544
  C      827.916     301.642     497.852
  O      829.122     302.309     498.260
  C      826.707     302.120     498.699
  N      825.818     301.024     499.075
  C      826.054     300.465     500.334
  O      826.955     300.906     501.056
  N      825.278     299.406     500.737
  C      824.337     298.956     499.960
  N      823.609     297.901     500.413
  C      824.036     299.539     498.634
  C      824.821     300.551     498.254
  O      823.792     304.971     494.080
  O      822.545     302.709     494.400
  H      829.406     301.875     499.084
  H      824.388     305.620     494.491
  H      823.248     299.137     498.028
  H      824.667     301.042     497.294
  H      827.056     302.614     499.615
  H      828.114     300.570     497.905
  H      826.741     301.360     496.090
  H      827.588     304.166     497.061
  H      823.856     297.515     501.315
  H      825.652     304.982     495.860
  H      822.889     297.447     499.884
  H      826.636     304.074     494.719
  P      828.440     301.585     494.057
  C      830.061     299.721     494.800
  O      828.811     300.027     494.179
  O      829.196     302.334     493.007
  O      826.859     301.536     493.809
  H      826.363     300.987     494.446
  H      830.197     298.660     494.824
  H      830.066     300.104     495.799
  H      830.856     300.170     494.242

 6  7  8  9  10  11  12  13  14  15  16  26  30  31  32  33  35 0
 6-311+G(2d,p)
 ****
 37  38 0
 6-311+G(2d,p)
 ****
 1  2  3  4  5  17  18  19  20  21  22  23  24  25 0
 3-21G
 ****
 27  28  29  34  36  39  40  41  42  43  44  45  46 0
 3-21G
 ****


