%nproc=1
%NoSave
%Mem=1900MB
#P OB98/GEN NMR

erre ene a

0 1
  C      596.212     706.236      69.122
  O      595.112     706.647      69.919
  H      597.114     706.261      69.730
  H      596.344     706.923      68.280
  H      596.053     705.225      68.758
  P      593.703     706.787      69.167
  C      592.956     708.454      71.041
  O      593.161     708.229      69.652
  C      592.282     709.806      71.264
  O      593.085     710.868      70.694
  C      590.912     709.944      70.605
  O      589.877     709.284      71.309
  C      590.758     711.459      70.636
  O      590.444     711.882      71.973
  C      592.181     711.903      70.219
  N      592.331     712.088      68.774
  C      591.931     713.327      68.250
  O      591.474     714.196      68.990
  N      592.011     713.532      66.893
  C      592.484     712.590      66.116
  N      592.539     712.844      64.787
  C      592.927     711.277      66.626
  C      592.818     711.099      67.950
  O      592.750     705.774      69.960
  O      593.728     706.601      67.690
  H      589.710     711.318      72.288
  H      591.809     705.894      69.669
  H      593.290     710.516      65.946
  H      593.130     710.156      68.395
  H      592.460     712.843      70.715
  H      589.961     711.825      69.986
  H      590.939     709.613      69.554
  H      592.219     709.972      72.350
  H      592.167     713.742      64.457
  H      593.926     708.432      71.538
  H      592.752     712.138      64.094
  H      592.322     707.658      71.451
  P      588.533     708.936      70.503
  C      587.140     709.486      72.644
  O      587.327     709.692      71.247
  O      588.278     707.383      70.878
  O      588.604     709.135      69.014
  H      587.887     706.898      70.133
  H      586.300     710.058      72.980
  H      588.018     709.797      73.171
  H      586.961     708.448      72.831

 6  7  8  9  10  11  12  13  14  15  16  26  30  31  32  33  35 0
 6-311+G(2d,p)
 ****
 37  38 0
 6-311+G(2d,p)
 ****
 1  2  3  4  5  17  18  19  20  21  22  23  24  25 0
 3-21G
 ****
 27  28  29  34  36  39  40  41  42  43  44  45  46 0
 3-21G
 ****


