%nproc=1
%NoSave
%Mem=1900MB
#P OB98/GEN NMR

erre ene a

0 1
  C     -237.599     211.344    -279.318
  O     -238.999     211.279    -279.051
  P     -239.728     212.577    -278.463
  C     -241.991     213.677    -279.054
  O     -241.302     212.464    -278.766
  C     -243.481     213.403    -279.314
  O     -243.620     212.707    -280.584
  C     -244.166     212.507    -278.272
  O     -244.752     213.128    -277.132
  C     -245.317     211.930    -279.091
  O     -246.419     212.858    -279.111
  C     -244.733     211.795    -280.494
  N     -246.177     207.251    -282.360
  C     -246.847     208.410    -282.188
  N     -246.387     209.576    -281.682
  C     -245.089     209.476    -281.351
  C     -244.279     208.357    -281.470
  C     -244.871     207.200    -282.001
  N     -244.190     206.014    -282.164
  N     -243.003     208.630    -281.016
  C     -243.053     209.887    -280.610
  N     -244.290     210.445    -280.803
  O     -239.105     213.888    -278.798
  O     -239.674     212.313    -276.881
  H     -246.034     213.742    -279.239
  H     -239.520     213.165    -276.419
  H     -247.888     208.403    -282.492
  H     -242.225     210.430    -280.176
  H     -245.450     212.076    -281.272
  H     -245.706     210.997    -278.664
  H     -243.495     211.699    -277.952
  H     -244.018     214.362    -279.390
  H     -241.540     214.149    -279.936
  H     -244.702     205.221    -282.510
  H     -243.234     205.942    -281.847
  H     -241.825     214.355    -278.218
  P     -244.014     213.111    -275.701
  C     -244.453     214.615    -273.609
  O     -244.985     213.914    -274.714
  O     -242.604     213.587    -275.714
  O     -244.205     211.592    -275.233
  H     -245.121     211.343    -275.030
  H     -245.229     215.264    -273.194
  H     -243.602     215.234    -273.910
  H     -244.142     213.906    -272.835
  H     -237.265     210.403    -279.704
  H     -237.073     211.565    -278.413
  H     -237.408     212.113    -280.038

 3  4  5  6  7  8  9  10  11  12  22  25  29  30  31  32 0
 6-311+G(2d,p)
 ****
 33  36  37 0
 6-311+G(2d,p)
 ****
 1  2  13  14  15  16  17  18  19  20  21  23  24  26 0
 3-21G
 ****
 27  28  34  35  38  39  40  41  42  43  44  45  46  47  48 0
 3-21G
 ****


