%nproc=1
%NoSave
%Mem=1900MB
#P OB98/GEN NMR

erre ene a

0 1
  C     -121.281      36.874      46.008
  O     -120.890      37.049      47.355
  H     -122.371      36.795      45.967
  H     -120.847      35.963      45.589
  H     -120.973      37.739      45.413
  P     -119.328      36.935      47.709
  C     -119.395      34.429      48.332
  O     -118.927      35.408      47.405
  C     -118.819      33.048      48.008
  O     -119.339      32.575      46.748
  C     -117.307      33.039      47.845
  O     -116.594      33.256      49.044
  C     -117.071      31.761      47.051
  O     -116.962      30.599      47.868
  C     -118.357      31.678      46.192
  N     -118.094      31.962      44.786
  C     -117.607      30.898      44.033
  O     -117.381      29.782      44.502
  N     -117.343      31.168      42.719
  C     -117.469      32.384      42.112
  O     -117.176      32.572      40.939
  C     -117.964      33.478      42.965
  C     -118.249      33.222      44.245
  O     -118.933      37.403      49.077
  O     -118.611      37.738      46.524
  H     -117.086      29.825      47.283
  H     -117.681      37.968      46.761
  H     -117.000      30.408      42.156
  H     -118.072      34.456      42.519
  H     -118.615      34.012      44.894
  H     -118.788      30.670      46.255
  H     -116.156      31.820      46.458
  H     -117.033      33.866      47.178
  H     -119.136      32.350      48.790
  H     -120.487      34.391      48.251
  H     -119.125      34.728      49.349
  P     -115.062      33.707      49.083
  C     -114.318      31.260      49.541
  O     -114.153      32.425      48.742
  O     -114.651      34.596      50.213
  O     -114.951      34.572      47.725
  H     -114.319      35.298      47.890
  H     -113.652      30.496      49.199
  H     -115.328      30.914      49.463
  H     -114.099      31.494      50.562

 6  7  8  9  10  11  12  13  14  15  16  26  31  32  33  34  35 0
 6-311+G(2d,p)
 ****
 36  37 0
 6-311+G(2d,p)
 ****
 1  2  3  4  5  17  18  19  20  21  22  23  24  25 0
 3-21G
 ****
 27  28  29  30  38  39  40  41  42  43  44  45 0
 3-21G
 ****


