%nproc=1
%NoSave
%Mem=1900MB
#P OB98/GEN NMR

erre ene a

0 1
  C     1097.425    -381.925    -651.672
  O     1098.458    -381.719    -650.718
  P     1098.185    -382.151    -649.198
  C     1099.735    -384.195    -648.814
  O     1098.419    -383.741    -649.113
  C     1099.771    -384.959    -647.489
  O     1099.466    -384.033    -646.405
  C     1098.758    -386.107    -647.388
  O     1099.349    -387.125    -646.574
  C     1097.597    -385.483    -646.631
  O     1096.767    -386.462    -646.016
  C     1098.357    -384.579    -645.659
  N     1097.370    -381.660    -641.579
  C     1098.287    -382.628    -641.800
  N     1098.499    -383.356    -642.909
  C     1097.623    -383.017    -643.875
  C     1096.602    -382.084    -643.787
  C     1096.494    -381.375    -642.573
  N     1095.558    -380.389    -642.350
  N     1095.891    -382.029    -644.963
  C     1096.464    -382.913    -645.746
  N     1097.529    -383.511    -645.138
  O     1096.597    -382.007    -649.069
  O     1098.893    -381.336    -648.169
  H     1096.355    -387.001    -646.714
  H     1096.380    -381.263    -648.474
  H     1098.963    -382.826    -640.969
  H     1096.154    -383.158    -646.754
  H     1098.768    -385.138    -644.813
  H     1096.977    -384.897    -647.324
  H     1098.458    -386.523    -648.354
  H     1100.790    -385.326    -647.330
  H     1100.402    -383.329    -648.740
  H     1095.633    -379.835    -641.515
  H     1095.029    -380.037    -643.141
  H     1100.091    -384.835    -649.627
  P     1099.560    -388.571    -647.243
  C     1102.022    -388.481    -648.060
  O     1100.643    -388.385    -648.403
  O     1098.193    -388.803    -648.028
  O     1099.825    -389.662    -646.260
  H     1098.011    -389.760    -648.108
  H     1102.560    -388.912    -648.912
  H     1102.177    -389.094    -647.181
  H     1102.406    -387.469    -647.872
  H     1097.755    -381.590    -652.633
  H     1096.555    -381.374    -651.381
  H     1097.187    -382.967    -651.720

 3  4  5  6  7  8  9  10  11  12  22  25  29  30  31  32 0
 6-311+G(2d,p)
 ****
 33  36  37 0
 6-311+G(2d,p)
 ****
 1  2  13  14  15  16  17  18  19  20  21  23  24  26 0
 3-21G
 ****
 27  28  34  35  38  39  40  41  42  43  44  45  46  47  48 0
 3-21G
 ****


