%nproc=1
%NoSave
%Mem=1900MB
#P OB98/GEN NMR

erre ene a

0 1
  C     -127.524    -344.792     376.706
  O     -127.257    -344.031     377.864
  P     -127.886    -342.591     378.144
  C     -127.780    -340.229     377.028
  O     -127.262    -341.552     377.092
  C     -126.719    -339.246     376.527
  O     -125.613    -339.229     377.472
  C     -126.128    -339.695     375.172
  O     -125.930    -338.633     374.247
  C     -124.900    -340.496     375.585
  O     -123.939    -340.645     374.543
  C     -124.431    -339.738     376.823
  N     -119.853    -341.476     378.192
  C     -120.170    -340.481     377.291
  N     -119.159    -340.027     376.518
  N     -121.380    -340.011     377.125
  C     -122.315    -340.645     377.875
  C     -122.120    -341.638     378.810
  C     -120.770    -342.119     379.007
  O     -120.460    -343.074     379.716
  N     -123.309    -342.085     379.335
  C     -124.222    -341.383     378.693
  N     -123.672    -340.521     377.773
  O     -127.983    -342.170     379.574
  O     -129.390    -342.780     377.584
  H     -123.360    -339.863     374.561
  H     -129.980    -342.232     378.151
  H     -118.914    -341.852     378.218
  H     -125.294    -341.485     378.833
  H     -123.798    -338.890     376.555
  H     -125.241    -341.505     375.849
  H     -118.245    -340.477     376.519
  H     -126.828    -340.354     374.654
  H     -119.400    -339.497     375.690
  H     -127.141    -338.231     376.484
  H     -128.081    -339.964     378.049
  H     -128.672    -340.191     376.397
  P     -125.561    -338.712     372.689
  C     -123.463    -338.537     371.231
  O     -123.964    -338.695     372.541
  O     -125.986    -337.295     372.083
  O     -126.235    -339.818     371.939
  H     -126.379    -337.426     371.201
  H     -122.399    -338.816     371.221
  H     -123.553    -337.495     370.920
  H     -123.997    -339.186     370.529
  H     -126.986    -345.715     376.754
  H     -127.216    -344.244     375.840
  H     -128.573    -344.994     376.646

 3  4  5  6  7  8  9  10  11  12  23  26  30  31 0
 6-311+G(2d,p)
 ****
 33  35  36  37  38 0
 6-311+G(2d,p)
 ****
 1  2  13  14  15  16  17  18  19  20  21  22  24  25 0
 3-21G
 ****
 27  28  29  32  34  39  40  41  42  43  44  45  46  47  48  49 0
 3-21G
 ****


