%nproc=1
%NoSave
%Mem=1900MB
#P OB98/GEN NMR

erre ene a

0 1
  C     -110.614    -170.606     408.968
  O     -110.559    -170.528     410.376
  H     -110.133    -171.535     408.648
  H     -110.082    -169.762     408.524
  H     -111.654    -170.610     408.627
  P     -111.211    -169.228     411.056
  C     -109.291    -168.927     412.776
  O     -110.670    -169.197     412.572
  C     -109.038    -168.520     414.230
  O     -110.009    -167.504     414.612
  C     -109.169    -169.679     415.230
  O     -108.178    -169.520     416.251
  C     -110.540    -169.456     415.840
  O     -110.668    -170.063     417.124
  C     -110.597    -167.932     415.856
  N     -114.312    -167.179     419.169
  C     -113.029    -167.649     419.354
  N     -112.675    -167.976     420.619
  N     -112.162    -167.792     418.382
  C     -112.641    -167.404     417.176
  C     -113.895    -166.931     416.857
  C     -114.851    -166.802     417.938
  O     -116.011    -166.411     417.835
  N     -114.002    -166.682     415.514
  C     -112.815    -166.998     415.020
  N     -111.958    -167.440     415.992
  O     -112.755    -169.629     411.221
  O     -111.037    -167.953     410.302
  H     -111.533    -169.793     417.498
  H     -113.324    -168.835     411.171
  H     -114.940    -167.101     419.949
  H     -112.532    -166.935     413.978
  H     -110.022    -167.499     416.677
  H     -111.318    -169.875     415.185
  H     -113.274    -167.863     421.417
  H     -109.069    -170.666     414.774
  H     -111.730    -168.310     420.777
  H     -108.052    -168.051     414.294
  H     -108.986    -168.110     412.111
  H     -108.710    -169.823     412.538
  P     -106.876    -170.459     416.174
  C     -107.473    -172.880     416.908
  O     -106.993    -171.599     417.300
  O     -105.713    -169.504     416.732
  O     -106.561    -170.945     414.796
  H     -105.132    -169.238     416.002
  H     -107.495    -173.528     417.759
  H     -106.824    -173.291     416.163
  H     -108.460    -172.784     416.507

 6  7  8  9  10  11  12  13  14  15  26  29  33  34 0
 6-311+G(2d,p)
 ****
 36  38  39  40  41 0
 6-311+G(2d,p)
 ****
 1  2  3  4  5  16  17  18  19  20  21  22  23  24  25 0
 3-21G
 ****
 27  28  30  31  32  35  37  42  43  44  45  46  47 0
 3-21G
 ****
 48  49 0
 3-21G
 ****


