%nproc=1
%NoSave
%Mem=1900MB
#P OB98/GEN NMR

erre ene a

0 1
  C      512.625     175.117    -174.401
  O      513.423     175.633    -173.343
  P      512.893     175.654    -171.825
  C      511.066     177.346    -172.539
  O      512.141     177.068    -171.662
  C      509.936     178.062    -171.791
  O      508.907     178.427    -172.744
  C      509.280     177.227    -170.692
  O      508.923     178.123    -169.628
  C      508.040     176.679    -171.372
  O      507.028     176.293    -170.446
  C      507.668     177.863    -172.271
  N      506.811     177.466    -173.384
  C      505.453     177.228    -173.110
  O      505.018     177.320    -171.970
  N      504.629     176.878    -174.149
  C      505.118     176.703    -175.342
  N      504.250     176.418    -176.350
  C      506.561     176.838    -175.652
  C      507.328     177.236    -174.644
  O      513.926     175.379    -170.798
  O      511.666     174.630    -171.818
  H      506.200     176.160    -170.944
  H      511.955     173.689    -171.685
  H      506.925     176.647    -176.647
  H      508.393     177.392    -174.775
  H      507.168     178.646    -171.685
  H      508.313     175.795    -171.970
  H      509.943     176.445    -170.290
  H      510.339     178.997    -171.373
  H      503.259     176.506    -176.130
  H      510.680     176.395    -172.927
  H      504.502     176.584    -177.313
  H      511.423     177.943    -173.385
  P      509.666     177.972    -168.213
  C      508.204     177.040    -166.279
  O      508.581     178.163    -167.052
  O      510.483     179.353    -168.136
  O      510.603     176.812    -168.079
  H      511.263     179.223    -167.556
  H      507.466     177.354    -165.540
  H      509.073     176.635    -165.754
  H      507.757     176.266    -166.914
  H      513.161     175.196    -175.324
  H      511.716     175.677    -174.468
  H      512.398     174.089    -174.208

 3  4  5  6  7  8  9  10  11  12  13  23  27  28  29  30  32 0
 6-311+G(2d,p)
 ****
 34  35 0
 6-311+G(2d,p)
 ****
 1  2  14  15  16  17  18  19  20  21  22  24  25  26 0
 3-21G
 ****
 31  33  36  37  38  39  40  41  42  43  44  45  46 0
 3-21G
 ****


