%nproc=1
%NoSave
%Mem=1900MB
#P OB98/GEN NMR

erre ene a

0 1
  C      370.531    -800.324     708.605
  O      371.279    -801.420     709.067
  H      371.062    -799.402     708.861
  H      369.551    -800.307     709.099
  H      370.403    -800.372     707.526
  P      370.718    -802.890     708.714
  C      368.261    -802.387     709.395
  O      369.166    -802.696     708.338
  C      366.964    -801.800     708.839
  O      367.272    -800.572     708.117
  C      366.210    -802.738     707.866
  O      364.807    -802.534     708.057
  C      366.594    -802.176     706.505
  O      365.665    -802.540     705.480
  C      366.633    -800.684     706.832
  N      367.101    -800.028     701.855
  C      366.234    -800.836     702.584
  N      365.384    -801.589     701.858
  N      366.240    -800.897     703.877
  C      367.139    -800.071     704.469
  C      368.042    -799.220     703.873
  C      368.054    -799.181     702.419
  O      368.802    -798.494     701.723
  N      368.792    -798.566     704.800
  C      368.351    -799.017     705.967
  N      367.348    -799.926     705.816
  O      370.672    -803.602     710.152
  O      371.523    -803.665     707.733
  H      365.929    -802.085     704.656
  H      371.500    -804.097     710.308
  H      367.070    -800.021     700.856
  H      368.729    -798.713     706.941
  H      365.628    -800.246     706.903
  H      367.589    -802.541     706.223
  H      365.297    -801.557     700.857
  H      366.455    -803.793     707.988
  H      364.713    -802.154     702.378
  H      366.323    -801.523     709.688
  H      368.731    -801.646     710.065
  H      368.041    -803.300     709.967
  P      364.070    -803.386     709.208
  C      362.635    -805.075     707.832
  O      363.796    -804.854     708.633
  O      362.609    -802.726     709.235
  O      364.738    -803.312     710.539
  H      362.216    -802.836     710.120
  H      362.600    -806.101     707.530
  H      362.675    -804.449     706.965
  H      361.759    -804.841     708.401

 6  7  8  9  10  11  12  13  14  15  26  29  33  34 0
 6-311+G(2d,p)
 ****
 36  38  39  40  41 0
 6-311+G(2d,p)
 ****
 1  2  3  4  5  16  17  18  19  20  21  22  23  24  25 0
 3-21G
 ****
 27  28  30  31  32  35  37  42  43  44  45  46  47 0
 3-21G
 ****
 48  49 0
 3-21G
 ****


