%nproc=1
%NoSave
%Mem=1900MB
#P OB98/GEN NMR

erre ene a

0 1
  C      124.672     115.534      -4.471
  O      125.622     115.978      -3.494
  P      126.160     114.913      -2.424
  C      127.495     112.701      -2.760
  O      127.355     114.078      -3.086
  C      128.228     111.951      -3.877
  O      127.602     112.147      -5.161
  C      129.675     112.393      -4.062
  O      130.534     111.767      -3.122
  C      129.958     111.885      -5.467
  O      130.250     110.468      -5.419
  C      128.624     112.129      -6.180
  N      131.364     115.518      -8.876
  C      131.711     114.382      -8.232
  N      130.936     113.540      -7.524
  C      129.657     113.968      -7.521
  C      129.149     115.108      -8.132
  C      130.064     115.903      -8.838
  N      129.697     117.059      -9.496
  N      127.793     115.223      -7.906
  C      127.486     114.161      -7.184
  N      128.577     113.378      -6.918
  O      124.967     113.844      -2.354
  O      126.450     115.498      -1.085
  H      131.165     110.377      -5.091
  H      124.890     113.492      -1.447
  H      132.768     114.109      -8.300
  H      126.486     113.915      -6.833
  H      128.374     111.322      -6.886
  H      130.824     112.371      -5.926
  H      129.759     113.493      -4.035
  H      128.199     110.876      -3.639
  H      126.514     112.256      -2.588
  H      130.413     117.562     -10.000
  H      128.729     117.336      -9.488
  H      128.039     112.614      -1.806
  P      131.073     112.666      -1.903
  C      130.134     113.058       0.496
  O      130.238     112.184      -0.614
  O      130.472     114.114      -2.236
  O      132.554     112.682      -1.757
  H      131.069     114.810      -1.881
  H      129.311     112.725       1.128
  H      129.936     114.085       0.170
  H      131.063     113.028       1.077
  H      124.409     116.351      -5.110
  H      123.795     115.172      -3.977
  H      125.103     114.748      -5.056

 3  4  5  6  7  8  9  10  11  12  22  25  29  30  31  32 0
 6-311+G(2d,p)
 ****
 33  36  37 0
 6-311+G(2d,p)
 ****
 1  2  13  14  15  16  17  18  19  20  21  23  24  26 0
 3-21G
 ****
 27  28  34  35  38  39  40  41  42  43  44  45  46  47  48 0
 3-21G
 ****


