%nproc=1
%NoSave
%Mem=1900MB
#P OB98/GEN NMR

erre ene a

0 1
  C        7.610      -0.036     -15.652
  O        7.441      -1.314     -15.063
  P        8.703      -1.927     -14.277
  C        8.671      -4.075     -15.761
  O        9.402      -2.956     -15.284
  C        9.462      -4.771     -16.870
  O        9.610      -3.895     -18.004
  C       10.869      -5.189     -16.467
  O       10.840      -6.412     -15.756
  C       11.558      -5.281     -17.824
  O       11.258      -6.534     -18.468
  C       10.927      -4.106     -18.583
  N       13.779      -0.891     -21.244
  C       13.291      -2.139     -21.585
  N       13.569      -2.569     -22.835
  N       12.594      -2.892     -20.778
  C       12.405      -2.338     -19.558
  C       12.849      -1.121     -19.096
  C       13.575      -0.277     -20.016
  O       13.943       0.874     -19.796
  N       12.481      -0.913     -17.793
  C       11.788      -1.989     -17.480
  N       11.694      -2.875     -18.521
  O        8.023      -2.859     -13.173
  O        9.634      -0.916     -13.685
  H       11.665      -7.260     -17.963
  H        7.982      -2.401     -12.310
  H       14.295      -0.349     -21.913
  H       11.319      -2.164     -16.524
  H       10.779      -4.334     -19.645
  H       12.647      -5.228     -17.737
  H       14.121      -2.055     -23.502
  H       11.344      -4.403     -15.866
  H       13.223      -3.484     -23.102
  H        8.882      -5.643     -17.197
  H        7.712      -3.735     -16.160
  H        8.485      -4.763     -14.929
  P       12.145      -6.810     -14.913
  C       12.497      -9.031     -16.208
  O       13.028      -7.775     -15.835
  O       11.568      -7.782     -13.779
  O       12.873      -5.652     -14.316
  H       12.060      -7.644     -12.948
  H       12.911      -9.312     -17.179
  H       11.406      -9.005     -16.280
  H       12.791      -9.779     -15.468
  H        6.703       0.254     -16.140
  H        8.404      -0.076     -16.368
  H        7.850       0.678     -14.892

 3  4  5  6  7  8  9  10  11  12  23  26  30  31 0
 6-311+G(2d,p)
 ****
 33  35  36  37  38 0
 6-311+G(2d,p)
 ****
 1  2  13  14  15  16  17  18  19  20  21  22  24  25 0
 3-21G
 ****
 27  28  29  32  34  39  40  41  42  43  44  45  46  47  48  49 0
 3-21G
 ****


