%nproc=1
%NoSave
%Mem=1900MB
#P OB98/GEN NMR

erre ene a

0 1
  C      852.825    -534.930     -36.950
  O      853.718    -533.875     -37.271
  P      853.449    -532.923     -38.520
  C      855.437    -531.387     -37.746
  O      854.764    -532.057     -38.789
  C      856.755    -530.810     -38.292
  O      856.502    -530.021     -39.471
  C      857.436    -529.916     -37.267
  O      858.407    -530.657     -36.528
  C      858.050    -528.833     -38.128
  O      859.290    -529.275     -38.706
  C      856.973    -528.675     -39.237
  N      855.803    -527.819     -38.948
  C      855.926    -526.433     -39.025
  O      856.956    -525.859     -39.356
  N      854.803    -525.722     -38.682
  C      853.589    -526.249     -38.321
  O      852.685    -525.618     -37.797
  C      853.464    -527.699     -38.520
  C      854.554    -528.414     -38.796
  O      852.410    -531.849     -37.939
  O      852.925    -533.604     -39.747
  H      859.634    -528.542     -39.241
  H      851.498    -532.076     -38.197
  H      854.924    -524.715     -38.603
  H      852.477    -528.149     -38.385
  H      854.481    -529.489     -38.908
  H      857.419    -528.304     -40.163
  H      858.285    -527.943     -37.540
  H      856.696    -529.463     -36.597
  H      857.411    -531.646     -38.578
  H      855.629    -532.075     -36.923
  H      854.806    -530.579     -37.352
  P      858.268    -530.756     -34.935
  C      858.647    -533.226     -35.517
  O      858.834    -532.213     -34.549
  O      856.914    -530.428     -34.380
  O      859.382    -529.737     -34.396
  H      858.976    -528.879     -34.176
  H      859.232    -534.104     -35.217
  H      858.985    -532.888     -36.498
  H      857.593    -533.507     -35.560
  H      853.181    -535.448     -36.084
  H      852.767    -535.611     -37.773
  H      851.854    -534.527     -36.751

 3  4  5  6  7  8  9  10  11  12  13  23  28  29  30  31  32 0
 6-311+G(2d,p)
 ****
 33  34 0
 6-311+G(2d,p)
 ****
 1  2  14  15  16  17  18  19  20  21  22  24  25  26  27 0
 3-21G
 ****
 35  36  37  38  39  40  41  42  43  44  45 0
 3-21G
 ****


