%nproc=1
%NoSave
%Mem=1900MB
#P OB98/GEN NMR

erre ene a

0 1
  C        1.245    -891.910     132.778
  O        1.763    -892.900     131.898
  P        1.978    -894.390     132.508
  C        0.526    -895.760     130.855
  O        1.828    -895.430     131.309
  C        0.320    -895.270     129.407
  O        0.419    -893.830     129.333
  C        1.348    -895.790     128.435
  O        1.064    -897.120     128.007
  C        1.177    -894.820     127.271
  O        0.067    -895.230     126.447
  C        0.857    -893.490     127.983
  N        2.604    -888.850     126.945
  C        1.368    -889.420     126.678
  N        0.451    -888.610     126.076
  N        1.057    -890.660     126.983
  C        2.047    -891.320     127.604
  C        3.321    -890.880     127.910
  C        3.677    -889.520     127.542
  O        4.764    -888.980     127.732
  N        4.056    -891.840     128.559
  C        3.225    -892.860     128.658
  N        1.997    -892.600     128.087
  O        0.643    -894.610     133.374
  O        3.216    -894.510     133.344
  H        0.341    -896.050     125.981
  H        0.820    -895.230     134.107
  H        2.791    -887.900     126.687
  H        3.451    -893.800     129.146
  H        0.038    -892.950     127.512
  H        2.060    -894.780     126.603
  H        0.614    -887.620     125.888
  H        2.366    -895.720     128.834
  H       -0.470    -889.000     125.923
  H       -0.697    -895.560     129.101
  H       -0.224    -895.280     131.495
  H        0.379    -896.830     130.927
  P        2.313    -898.090     127.718
  C        2.590    -899.220     130.047
  O        2.122    -899.350     128.723
  O        3.562    -897.290     128.334
  O        2.499    -898.420     126.287
  H        4.371    -897.530     127.839
  H        2.340    -898.240     130.462
  H        3.682    -899.350     130.060
  H        2.120    -900.000     130.652
  H        1.153    -890.981     132.255
  H        1.909    -891.788     133.608
  H        0.283    -892.217     133.133

 3  4  5  6  7  8  9  10  11  12  23  26  30  31  33  0
 6-311+G(2d,p)
 ****
 35  36  37  38 0
 6-311+G(2d,p)
 ****
 1  2  13  14  15  16  17  18  19  20  21  22  24  25  27  28  29 0
 3-21G
 ****
 32  34  39  40  41  42  43  44  45  46  47  48  49 0
 3-21G
 ****


