%nproc=1
%NoSave
%Mem=1900MB
#P OB98/GEN NMR

erre ene a

0 1
  C      199.562     124.317     290.185
  O      199.974     125.660     289.987
  P      200.510     126.548     291.213
  C      198.877     128.482     291.666
  O      199.187     127.117     291.923
  C      198.649     128.697     290.171
  O      197.878     127.584     289.659
  C      197.852     129.945     289.787
  O      198.625     131.136     289.699
  C      197.367     129.556     288.396
  O      198.430     129.736     287.441
  C      197.055     128.066     288.564
  N      192.275     128.279     286.744
  C      193.473     128.559     286.179
  N      194.702     128.496     286.738
  C      194.624     128.049     288.002
  C      193.476     127.715     288.709
  C      192.257     127.842     288.025
  N      191.041     127.534     288.595
  N      193.799     127.314     289.995
  C      195.113     127.390     290.052
  N      195.657     127.819     288.870
  O      201.535     127.561     290.840
  O      201.051     125.476     292.273
  H      199.127     129.085     287.668
  H      201.629     125.915     292.927
  H      193.440     128.885     285.142
  H      195.707     127.149     290.920
  H      197.315     127.477     287.679
  H      196.525     130.165     288.049
  H      196.986     130.083     290.443
  H      199.629     128.692     289.668
  H      199.722     129.095     291.995
  H      190.234     127.529     287.992
  H      191.039     127.056     289.490
  H      197.995     128.775     292.244
  P      197.823     132.533     289.745
  C      197.602     133.860     287.499
  O      197.227     132.741     288.273
  O      198.611     133.674     290.288
  O      196.533     132.167     290.622
  H      195.907     131.553     290.207
  H      197.215     133.734     286.482
  H      198.687     133.954     287.451
  H      197.170     134.772     287.929
  H      199.241     123.901     289.253
  H      198.752     124.292     290.884
  H      200.382     123.745     290.568

 3  4  5  6  7  8  9  10  11  12  22  25  29  30  31  32 0
 6-311+G(2d,p)
 ****
 33  36  37 0
 6-311+G(2d,p)
 ****
 1  2  13  14  15  16  17  18  19  20  21  23  24  26 0
 3-21G
 ****
 27  28  34  35  38  39  40  41  42  43  44  45  46  47  48 0
 3-21G
 ****


