%nproc=1
%NoSave
%Mem=1900MB
#P OB98/GEN NMR

erre ene a

0 1
  C     -126.935      41.279     376.828
  O     -126.696      40.496     377.982
  H     -126.522      42.278     376.992
  H     -128.010      41.367     376.646
  H     -126.439      40.831     375.962
  P     -127.260      38.994     377.960
  C     -128.056      39.233     380.414
  O     -128.427      38.991     379.062
  C     -129.138      40.036     381.130
  O     -129.216      41.365     380.584
  C     -130.537      39.445     381.018
  O     -130.727      38.429     381.990
  C     -131.394      40.666     381.313
  O     -131.466      40.872     382.737
  C     -130.597      41.807     380.657
  N     -134.450      43.722     377.858
  C     -134.397      43.298     379.138
  N     -133.358      42.750     379.802
  C     -132.276      42.664     379.006
  C     -132.183      43.053     377.678
  C     -133.333      43.611     377.100
  N     -133.384      44.041     375.789
  N     -130.917      42.809     377.183
  C     -130.247      42.339     378.211
  N     -131.031      42.196     379.328
  O     -126.235      37.917     378.081
  O     -128.084      38.998     376.587
  H     -132.018      40.153     383.099
  H     -128.565      39.837     376.479
  H     -135.316      43.410     379.707
  H     -129.187      42.102     378.210
  H     -130.616      42.719     381.272
  H     -132.419      40.557     380.955
  H     -130.750      39.093     379.999
  H     -128.842      40.135     382.183
  H     -127.103      39.777     380.452
  H     -134.294      44.243     375.409
  H     -132.594      43.837     375.195
  H     -127.918      38.259     380.900
  P     -130.811      36.884     381.572
  C     -133.288      37.064     382.237
  O     -132.362      36.628     381.250
  O     -130.186      35.945     382.542
  O     -130.130      36.830     380.127
  H     -129.898      35.907     379.902
  H     -134.284      36.842     381.915
  H     -133.186      38.120     382.380
  H     -133.091      36.559     383.159

 6  7  8  9  10  11  12  13  14  15  25  28  32  33  34  35 0
 6-311+G(2d,p)
 ****
 36  39  40 0
 6-311+G(2d,p)
 ****
 1  2  3  4  5  16  17  18  19  20  21  22  23  24 0
 3-21G
 ****
 26  27  29  30  31  37  38  41  42  43  44  45  46  47 0
 3-21G
 ****
 48 0
 3-21G
 ****


