%nproc=1
%NoSave
%Mem=1900MB
#P OB98/GEN NMR

erre ene a

0 1
  C       71.671     -83.603     267.629
  O       72.128     -82.810     268.705
  H       71.939     -83.109     266.690
  H       70.584     -83.713     267.673
  H       72.145     -84.586     267.660
  P       71.730     -83.307     270.180
  C       70.028     -81.574     271.140
  O       70.229     -82.756     270.374
  C       70.446     -80.352     270.333
  O       69.892     -80.401     268.998
  C       69.975     -79.015     270.914
  O       70.753     -78.582     272.017
  C       70.166     -78.126     269.701
  O       71.564     -77.847     269.517
  C       69.619     -79.037     268.580
  N       68.190     -78.849     268.327
  C       67.829     -78.426     267.036
  O       68.686     -78.236     266.174
  N       66.501     -78.204     266.759
  C       65.608     -78.401     267.682
  N       64.311     -78.154     267.350
  C       65.942     -78.849     269.047
  C       67.233     -79.052     269.296
  O       72.584     -82.350     271.136
  O       71.902     -84.766     270.449
  H       71.625     -77.134     268.859
  H       72.300     -82.472     272.074
  H       65.160     -78.981     269.787
  H       67.552     -79.380     270.278
  H       70.166     -78.871     267.640
  H       69.661     -77.164     269.788
  H       68.911     -79.046     271.170
  H       71.541     -80.377     270.231
  H       64.118     -77.791     266.430
  H       70.628     -81.652     272.051
  H       63.564     -78.129     268.038
  H       68.972     -81.485     271.411
  P       70.230     -77.293     272.819
  C       71.248     -74.917     272.499
  O       70.555     -76.014     271.915
  O       71.274     -77.165     274.026
  O       68.811     -77.386     273.308
  H       70.831     -76.830     274.833
  H       71.385     -74.150     271.765
  H       72.203     -75.246     272.853
  H       70.678     -74.530     273.318

 6  7  8  9  10  11  12  13  14  15  16  26  30  31  32  33  35 0
 6-311+G(2d,p)
 ****
 37  38 0
 6-311+G(2d,p)
 ****
 1  2  3  4  5  17  18  19  20  21  22  23  24  25 0
 3-21G
 ****
 27  28  29  34  36  39  40  41  42  43  44  45  46 0
 3-21G
 ****


