%nproc=1
%NoSave
%Mem=1900MB
#P OB98/GEN NMR

erre ene a

0 1
  C     -504.973     267.191     739.960
  O     -503.961     267.968     739.350
  H     -504.911     267.325     741.046
  H     -504.823     266.134     739.726
  H     -505.964     267.513     739.623
  P     -504.013     268.112     737.754
  C     -502.469     270.196     737.983
  O     -502.712     268.961     737.330
  C     -500.988     270.549     737.902
  O     -500.217     269.508     738.564
  C     -500.445     270.661     736.461
  O     -499.479     271.706     736.415
  C     -499.760     269.324     736.248
  O     -498.762     269.347     735.232
  C     -499.198     269.067     737.647
  N     -498.865     267.662     737.863
  C     -497.691     267.185     737.287
  O     -496.872     267.878     736.681
  N     -497.461     265.839     737.439
  C     -498.283     264.950     738.068
  O     -498.045     263.748     738.147
  C     -499.509     265.512     738.651
  C     -499.737     266.822     738.519
  O     -505.212     269.145     737.519
  O     -504.193     266.842     736.997
  H     -506.058     268.660     737.426
  H     -499.177     269.759     734.436
  H     -496.616     265.480     737.027
  H     -500.190     264.825     739.140
  H     -500.654     267.267     738.919
  H     -498.308     269.686     737.822
  H     -500.497     268.565     735.978
  H     -501.224     270.848     735.702
  H     -500.807     271.480     738.444
  H     -502.748     270.107     739.040
  H     -503.080     270.977     737.522
  P     -499.846     273.024     735.575
  C     -499.327     274.752     737.476
  O     -498.971     274.205     736.215
  O     -501.331     273.310     736.094
  O     -499.710     272.836     734.104
  H     -501.464     273.078     737.036
  H     -498.633     275.523     737.739
  H     -499.303     273.982     738.219
  H     -500.313     275.163     737.421

 6  7  8  9  10  11  12  13  14  15  16  27  31  32  33  34  35 0
 6-311+G(2d,p)
 ****
 36  37 0
 6-311+G(2d,p)
 ****
 1  2  3  4  5  17  18  19  20  21  22  23  24  25 0
 3-21G
 ****
 26  28  29  30  38  39  40  41  42  43  44  45 0
 3-21G
 ****


