%nproc=1
%NoSave
%Mem=1900MB
#P OB98/GEN NMR

erre ene a

0 1
  C      -17.434     757.867    -129.954
  O      -16.335     757.917    -130.838
  H      -18.358     757.905    -130.548
  H      -17.414     758.734    -129.288
  H      -17.435     756.946    -129.367
  P      -14.900     757.429    -130.309
  C      -13.282     759.438    -130.185
  O      -14.233     758.637    -129.490
  C      -13.963     760.434    -131.129
  O      -15.014     761.130    -130.426
  C      -12.994     761.497    -131.656
  O      -12.285     761.122    -132.823
  C      -13.933     762.667    -131.940
  O      -14.480     762.591    -133.275
  C      -15.048     762.491    -130.895
  N      -16.983     766.513    -128.401
  C      -17.350     766.000    -129.633
  N      -18.323     766.671    -130.293
  N      -16.794     764.942    -130.168
  C      -15.759     764.443    -129.443
  C      -15.302     764.882    -128.215
  C      -15.972     766.007    -127.595
  O      -15.696     766.489    -126.508
  N      -14.206     764.150    -127.798
  C      -13.973     763.333    -128.807
  N      -14.930     763.427    -129.785
  O      -14.012     757.384    -131.643
  O      -14.893     756.101    -129.613
  H      -13.777     762.855    -133.894
  H      -13.342     756.674    -131.562
  H      -17.471     767.310    -128.034
  H      -13.140     762.640    -128.860
  H      -16.035     762.640    -131.341
  H      -13.404     763.622    -131.870
  H      -18.726     767.535    -129.965
  H      -12.285     761.807    -130.871
  H      -18.490     766.436    -131.275
  H      -14.430     759.876    -131.954
  H      -12.659     758.744    -130.760
  H      -12.632     759.966    -129.478
  P      -10.795     761.659    -133.084
  C      -10.327     763.523    -134.881
  O      -10.891     763.156    -133.639
  O      -10.336     760.822    -134.373
  O       -9.838     761.499    -131.949
  H       -9.779     760.063    -134.111
  H      -10.504     764.563    -135.060
  H      -10.777     762.946    -135.662
  H       -9.273     763.338    -134.863

 6  7  8  9  10  11  12  13  14  15  26  29  33  34 0
 6-311+G(2d,p)
 ****
 36  38  39  40  41 0
 6-311+G(2d,p)
 ****
 1  2  3  4  5  16  17  18  19  20  21  22  23  24  25 0
 3-21G
 ****
 27  28  30  31  32  35  37  42  43  44  45  46  47 0
 3-21G
 ****
 48  49 0
 3-21G
 ****


