%nproc=1
%NoSave
%Mem=1900MB
#P OB98/GEN NMR

erre ene a

0 1
  C     -223.218     585.786     421.810
  O     -223.526     585.884     420.435
  H     -224.102     586.076     422.384
  H     -222.402     586.465     422.064
  H     -222.951     584.757     422.072
  P     -222.393     585.553     419.344
  C     -222.206     585.765     416.791
  O     -222.988     586.069     417.937
  C     -223.093     585.459     415.585
  O     -223.595     584.095     415.688
  C     -224.311     586.389     415.454
  O     -224.434     586.856     414.108
  C     -225.493     585.487     415.795
  O     -226.715     585.938     415.231
  C     -224.978     584.138     415.276
  N     -225.751     583.012     415.801
  C     -226.906     582.672     415.087
  O     -227.218     583.311     414.077
  N     -227.702     581.675     415.569
  C     -227.407     581.086     416.692
  N     -228.259     580.123     417.127
  C     -226.205     581.436     417.486
  C     -225.428     582.391     416.991
  O     -221.924     584.134     419.351
  O     -221.220     586.601     419.643
  H     -226.879     586.853     415.528
  H     -220.375     586.251     419.275
  H     -226.005     580.922     418.417
  H     -224.535     582.716     417.500
  H     -225.006     584.095     414.178
  H     -225.611     585.444     416.884
  H     -224.263     587.250     416.129
  H     -222.473     585.484     414.678
  H     -229.068     579.919     416.554
  H     -221.559     584.902     417.027
  H     -228.139     579.618     417.990
  H     -221.573     586.632     416.562
  P     -223.718     588.251     413.774
  C     -222.872     589.399     411.601
  O     -223.762     588.461     412.179
  O     -222.176     587.970     414.083
  O     -224.239     589.393     414.579
  H     -221.903     588.460     414.884
  H     -223.020     589.425     410.542
  H     -221.863     589.111     411.813
  H     -223.060     590.369     412.012

 6  7  8  9  10  11  12  13  14  15  16  26  30  31  32  33  35 0
 6-311+G(2d,p)
 ****
 37  38 0
 6-311+G(2d,p)
 ****
 1  2  3  4  5  17  18  19  20  21  22  23  24  25 0
 3-21G
 ****
 27  28  29  34  36  39  40  41  42  43  44  45  46 0
 3-21G
 ****


