%nproc=1
%NoSave
%Mem=1900MB
#P OB98/GEN NMR

erre ene a

0 1
  C      196.974     238.307    -244.218
  O      198.039     238.702    -245.078
  P      199.322     237.747    -245.192
  C      199.287     237.297    -247.800
  O      199.932     237.832    -246.666
  C      199.868     237.947    -249.068
  O      199.278     239.249    -249.278
  C      201.379     238.144    -249.007
  O      202.085     236.994    -249.434
  C      201.576     239.347    -249.909
  O      201.513     238.949    -251.291
  C      200.341     240.207    -249.538
  N      200.456     241.118    -248.375
  C      201.158     242.314    -248.505
  O      201.715     242.685    -249.531
  N      201.200     243.107    -247.383
  C      200.487     242.920    -246.234
  O      200.514     243.695    -245.288
  C      199.644     241.720    -246.211
  C      199.676     240.884    -247.252
  O      198.708     236.274    -245.118
  O      200.359     237.978    -244.136
  H      202.174     238.251    -251.419
  H      199.015     235.817    -244.313
  H      201.762     243.942    -247.433
  H      199.023     241.554    -245.337
  H      199.053     239.993    -247.243
  H      200.030     240.821    -250.391
  H      202.558     239.794    -249.767
  H      201.684     238.432    -247.994
  H      199.611     237.321    -249.931
  H      198.209     237.466    -247.754
  H      199.436     236.211    -247.829
  P      203.637     236.828    -249.078
  C      203.152     234.706    -247.724
  O      203.856     235.259    -248.821
  O      204.166     237.737    -248.020
  O      204.372     237.055    -250.491
  H      204.673     237.989    -250.577
  H      203.260     233.617    -247.755
  H      202.093     234.959    -247.783
  H      203.573     235.074    -246.787
  H      196.198     239.043    -244.251
  H      197.339     238.218    -243.216
  H      196.586     237.364    -244.541

 3  4  5  6  7  8  9  10  11  12  13  23  28  29  30  31  32 0
 6-311+G(2d,p)
 ****
 33  34 0
 6-311+G(2d,p)
 ****
 1  2  14  15  16  17  18  19  20  21  22  24  25  26  27 0
 3-21G
 ****
 35  36  37  38  39  40  41  42  43  44  45 0
 3-21G
 ****


