%nproc=1
%NoSave
%Mem=1900MB
#P OB98/GEN NMR

erre ene a

0 1
  C      134.979     -41.570      38.232
  O      135.489     -41.676      39.544
  H      135.382     -42.369      37.605
  H      133.891     -41.666      38.267
  H      135.234     -40.597      37.804
  P      137.083     -41.600      39.709
  C      137.930     -39.252      39.012
  O      137.446     -40.074      40.064
  C      139.370     -38.833      39.300
  O      139.868     -38.093      38.157
  C      139.542     -37.952      40.550
  O      140.449     -38.569      41.469
  C      140.183     -36.674      40.028
  O      141.196     -36.161      40.889
  C      140.750     -37.091      38.676
  N      142.942     -32.548      37.952
  C      143.307     -33.606      38.708
  N      142.738     -34.826      38.776
  C      141.698     -34.912      37.930
  C      141.222     -33.928      37.079
  C      141.880     -32.689      37.123
  N      141.474     -31.594      36.394
  N      140.126     -34.384      36.368
  C      139.920     -35.606      36.814
  N      140.833     -35.961      37.772
  O      137.616     -41.773      38.209
  O      137.674     -42.619      40.625
  H      141.791     -36.907      41.098
  H      138.330     -42.437      38.189
  H      144.168     -33.450      39.352
  H      139.107     -36.255      36.515
  H      141.750     -37.532      38.766
  H      139.406     -35.909      39.915
  H      138.592     -37.739      41.052
  H      139.980     -39.739      39.389
  H      137.308     -38.353      38.933
  H      141.932     -30.715      36.574
  H      140.620     -31.660      35.860
  H      137.867     -39.804      38.069
  P      139.917     -38.779      42.974
  C      139.104     -41.251      43.065
  O      140.144     -40.324      43.349
  O      138.328     -38.669      42.811
  O      140.452     -37.787      43.949
  H      137.928     -38.363      43.646
  H      139.406     -42.231      43.371
  H      138.904     -41.252      42.014
  H      138.219     -40.968      43.596

 6  7  8  9  10  11  12  13  14  15  25  28  32  33  34  35 0
 6-311+G(2d,p)
 ****
 36  39  40 0
 6-311+G(2d,p)
 ****
 1  2  3  4  5  16  17  18  19  20  21  22  23  24 0
 3-21G
 ****
 26  27  29  30  31  37  38  41  42  43  44  45  46  47  48 0
 3-21G
 ****


