%nproc=1
%NoSave
%Mem=1900MB
#P OB98/GEN NMR

erre ene a

0 1
  C      195.684      19.203    -197.409
  O      195.560      19.788    -198.690
  H      194.811      18.571    -197.228
  H      195.723      19.975    -196.635
  H      196.583      18.582    -197.360
  P      196.680      20.829    -199.167
  C      196.986      23.389    -198.943
  O      196.339      22.219    -198.447
  C      196.854      24.538    -197.945
  O      197.579      24.237    -196.736
  C      197.416      25.865    -198.447
  O      196.540      26.451    -199.391
  C      197.564      26.618    -197.135
  O      196.298      27.128    -196.688
  C      198.060      25.492    -196.195
  N      199.511      25.465    -196.036
  C      200.039      26.318    -195.058
  O      199.293      27.044    -194.402
  N      201.399      26.332    -194.869
  C      202.158      25.539    -195.555
  N      203.499      25.597    -195.318
  C      201.640      24.600    -196.570
  C      200.323      24.624    -196.765
  O      196.899      20.934    -200.644
  O      198.005      20.345    -198.408
  H      196.501      27.787    -195.996
  H      198.527      19.748    -198.976
  H      202.311      23.949    -197.113
  H      199.859      23.965    -197.492
  H      197.610      25.599    -195.199
  H      198.239      27.468    -197.219
  H      198.414      25.718    -198.875
  H      195.794      24.635    -197.679
  H      203.805      26.244    -194.597
  H      196.496      23.651    -199.886
  H      204.159      24.923    -195.669
  H      198.043      23.187    -199.147
  P      197.087      27.099    -200.751
  C      198.250      29.302    -201.392
  O      197.719      28.517    -200.336
  O      196.102      27.154    -201.868
  O      198.389      26.231    -201.087
  H      198.127      25.356    -201.474
  H      198.639      30.216    -200.996
  H      197.476      29.520    -202.098
  H      199.035      28.761    -201.879

 6  7  8  9  10  11  12  13  14  15  16  26  30  31  32  33  35 0
 6-311+G(2d,p)
 ****
 37  38 0
 6-311+G(2d,p)
 ****
 1  2  3  4  5  17  18  19  20  21  22  23  24  25 0
 3-21G
 ****
 27  28  29  34  36  39  40  41  42  43  44  45  46 0
 3-21G
 ****


