%nproc=1
%NoSave
%Mem=1900MB
#P OB98/GEN NMR

erre ene a

0 1
  C     -304.099      39.038    -109.587
  O     -304.778      40.136    -110.161
  H     -303.896      38.301    -110.373
  H     -304.718      38.566    -108.821
  H     -303.147      39.354    -109.150
  P     -305.078      41.423    -109.251
  C     -302.736      42.435    -109.625
  O     -303.667      41.927    -108.681
  C     -302.661      43.957    -109.513
  O     -302.469      44.349    -108.133
  C     -301.502      44.577    -110.287
  O     -301.776      44.601    -111.674
  C     -301.415      45.942    -109.617
  O     -302.423      46.829    -110.122
  C     -301.703      45.578    -108.137
  N     -300.477      45.440    -107.338
  C     -299.609      46.526    -107.360
  O     -299.823      47.555    -108.006
  N     -298.450      46.374    -106.647
  C     -298.048      45.235    -106.005
  O     -296.912      45.066    -105.570
  C     -299.040      44.148    -105.955
  C     -300.187      44.293    -106.631
  O     -306.155      41.259    -108.230
  O     -305.453      42.561    -110.319
  H     -306.423      42.664    -110.353
  H     -302.234      46.953    -111.071
  H     -297.790      47.139    -106.692
  H     -298.787      43.250    -105.403
  H     -300.922      43.491    -106.631
  H     -302.331      46.346    -107.670
  H     -300.449      46.426    -109.783
  H     -300.576      44.022    -110.083
  H     -303.618      44.375    -109.853
  H     -303.080      42.159    -110.630
  H     -301.753      41.982    -109.445
  P     -300.608      44.436    -112.755
  C     -301.751      42.423    -113.865
  O     -300.577      42.900    -113.216
  O     -299.284      44.990    -112.347
  O     -301.167      45.191    -114.056
  H     -300.504      45.844    -114.357
  H     -301.621      41.394    -114.127
  H     -301.927      42.997    -114.751
  H     -302.588      42.520    -113.205

 6  7  8  9  10  11  12  13  14  15  16  27  31  32  33  34  35 0
 6-311+G(2d,p)
 ****
 36  37 0
 6-311+G(2d,p)
 ****
 1  2  3  4  5  17  18  19  20  21  22  23  24  25 0
 3-21G
 ****
 26  28  29  30  38  39  40  41  42  43  44  45 0
 3-21G
 ****


