%nproc=1
%NoSave
%Mem=1900MB
#P OB98/GEN NMR

erre ene a

0 1
  C      304.328     424.176    -629.380
  O      303.084     423.462    -629.432
  P      302.032     423.643    -628.235
  C      299.460     423.648    -627.938
  O      300.555     423.298    -628.770
  C      298.179     423.767    -628.771
  O      298.360     424.671    -629.899
  C      297.759     422.444    -629.402
  O      297.291     421.441    -628.526
  C      296.831     422.891    -630.515
  O      295.509     423.139    -630.029
  C      297.497     424.221    -630.960
  N      298.240     424.084    -632.224
  C      297.478     423.732    -633.339
  O      296.271     423.510    -633.294
  N      298.171     423.624    -634.520
  C      299.523     423.784    -634.661
  O      300.089     423.644    -635.747
  C      300.274     424.115    -633.447
  C      299.601     424.258    -632.296
  O      302.141     424.905    -627.453
  O      302.357     422.372    -627.296
  H      294.926     423.236    -630.805
  H      302.313     422.674    -626.361
  H      297.644     423.372    -635.332
  H      301.334     424.253    -633.535
  H      300.138     424.501    -631.382
  H      296.732     425.007    -631.104
  H      296.743     422.137    -631.309
  H      298.645     422.008    -629.890
  H      297.392     424.184    -628.142
  H      299.670     424.600    -627.426
  H      299.363     422.904    -627.146
  P      297.969     419.997    -628.398
  C      297.416     417.738    -627.233
  O      296.983     419.037    -627.580
  O      299.414     419.954    -628.029
  O      297.802     419.434    -629.906
  H      298.567     418.861    -630.103
  H      296.610     417.225    -626.700
  H      298.288     417.775    -626.595
  H      297.651     417.168    -628.145
  H      304.909     423.945    -630.248
  H      304.868     423.888    -628.503
  H      304.135     425.228    -629.350

 3  4  5  6  7  8  9  10  11  12  13  23  28  29  30  31  32 0
 6-311+G(2d,p)
 ****
 33  34 0
 6-311+G(2d,p)
 ****
 1  2  14  15  16  17  18  19  20  21  22  24  25  26  27 0
 3-21G
 ****
 35  36  37  38  39  40  41  42  43  44  45 0
 3-21G
 ****


