%nproc=1
%NoSave
%Mem=1900MB
#P OB98/GEN NMR

erre ene a

0 1
  C     -107.209     -46.229     126.936
  O     -108.447     -45.844     127.512
  P     -109.309     -44.725     126.752
  C     -108.849     -43.090     128.762
  O     -108.835     -43.321     127.362
  C     -108.612     -41.607     129.055
  O     -107.292     -41.224     128.615
  C     -109.568     -40.659     128.343
  O     -110.842     -40.625     128.966
  C     -108.790     -39.349     128.409
  O     -108.950     -38.740     129.702
  C     -107.338     -39.835     128.227
  N     -106.836     -39.647     126.867
  C     -106.235     -38.422     126.596
  O     -106.119     -37.529     127.435
  N     -105.785     -38.248     125.314
  C     -105.932     -39.131     124.286
  O     -105.549     -38.908     123.144
  C     -106.604     -40.396     124.623
  C     -107.017     -40.591     125.878
  O     -110.752     -44.981     127.392
  O     -109.243     -44.841     125.268
  H     -110.689     -45.366     128.283
  H     -108.724     -39.426     130.361
  H     -105.325     -37.376     125.100
  H     -106.746     -41.119     123.830
  H     -107.523     -41.513     126.142
  H     -106.672     -39.303     128.916
  H     -109.123     -38.622     127.661
  H     -109.682     -40.963     127.295
  H     -108.664     -41.460     130.142
  H     -108.061     -43.687     129.230
  H     -109.817     -43.410     129.164
  P     -112.079     -40.158     128.050
  C     -112.175     -37.964     129.467
  O     -112.164     -38.565     128.191
  O     -113.319     -40.699     128.905
  O     -112.018     -40.678     126.652
  H     -113.216     -40.547     129.859
  H     -111.881     -36.917     129.364
  H     -111.481     -38.461     130.149
  H     -113.186     -38.006     129.882
  H     -106.749     -46.977     127.547
  H     -106.566     -45.376     126.870
  H     -107.379     -46.624     125.956

 3  4  5  6  7  8  9  10  11  12  13  24  28  29  30  31  32 0
 6-311+G(2d,p)
 ****
 33  34 0
 6-311+G(2d,p)
 ****
 1  2  14  15  16  17  18  19  20  21  22  23  25  26  27 0
 3-21G
 ****
 35  36  37  38  39  40  41  42  43  44  45 0
 3-21G
 ****


