%nproc=1
%NoSave
%Mem=1900MB
#P OB98/GEN NMR

erre ene a

0 1
  C     -103.664    -165.987      39.885
  O     -103.109    -164.865      40.534
  H     -104.620    -165.697      39.442
  H     -103.843    -166.783      40.616
  H     -103.008    -166.358      39.093
  P     -101.547    -164.869      40.880
  C     -101.889    -165.098      43.430
  O     -101.352    -165.686      42.251
  C     -101.115    -165.515      44.682
  O     -101.037    -166.957      44.764
  C      -99.670    -165.013      44.664
  O      -99.483    -163.685      45.121
  C      -98.982    -166.014      45.590
  O      -99.110    -165.612      46.963
  C      -99.764    -167.306      45.332
  N      -97.350    -171.782      44.817
  C      -97.865    -171.199      45.959
  N      -97.659    -171.865      47.117
  N      -98.504    -170.058      45.961
  C      -98.550    -169.459      44.745
  C      -98.062    -169.934      43.547
  C      -97.404    -171.225      43.547
  O      -96.924    -171.782      42.564
  N      -98.299    -169.049      42.520
  C      -98.859    -168.011      43.111
  N      -99.055    -168.223      44.458
  O     -101.256    -163.357      41.336
  O     -100.642    -165.275      39.756
  H      -98.801    -164.691      47.044
  H     -100.322    -163.136      41.174
  H      -96.890    -172.675      44.872
  H      -99.161    -167.098      42.613
  H      -99.966    -167.843      46.269
  H      -97.910    -166.088      45.381
  H      -97.074    -172.685      47.181
  H      -99.240    -165.121      43.661
  H      -97.782    -171.352      47.993
  H     -101.653    -165.167      45.572
  H     -102.927    -165.434      43.503
  H     -101.907    -164.009      43.336
  P      -98.499    -162.697      44.333
  C      -96.524    -163.295      45.921
  O      -97.004    -163.215      44.598
  O      -98.592    -161.346      45.191
  O      -98.848    -162.472      42.901
  H      -99.236    -160.737      44.786
  H      -95.517    -163.657      45.914
  H      -97.140    -163.965      46.484
  H      -96.551    -162.324      46.369

 6  7  8  9  10  11  12  13  14  15  26  29  33  34 0
 6-311+G(2d,p)
 ****
 36  38  39  40  41 0
 6-311+G(2d,p)
 ****
 1  2  3  4  5  16  17  18  19  20  21  22  23  24  25 0
 3-21G
 ****
 27  28  30  31  32  35  37  42  43  44  45  46  47 0
 3-21G
 ****
 48  49 0
 3-21G
 ****


