%nproc=1
%NoSave
%Mem=1900MB
#P OB98/GEN NMR

erre ene a

0 1
  C      239.180     256.953     -22.448
  O      239.140     257.469     -21.133
  H      238.810     257.717     -23.136
  H      238.535     256.073     -22.521
  H      240.203     256.689     -22.729
  P      239.831     256.582     -19.989
  C      240.772     257.166     -17.642
  O      240.517     257.610     -18.966
  C      241.658     258.170     -16.909
  O      242.960     258.241     -17.535
  C      241.115     259.596     -16.898
  O      240.152     259.784     -15.869
  C      242.386     260.378     -16.612
  O      242.716     260.272     -15.213
  C      243.418     259.620     -17.457
  N      246.645     261.746     -20.740
  C      246.841     261.356     -19.428
  N      248.070     261.573     -18.913
  N      245.915     260.811     -18.684
  C      244.731     260.663     -19.328
  C      244.418     261.007     -20.623
  C      245.452     261.602     -21.436
  O      245.339     261.945     -22.611
  N      243.116     260.694     -20.923
  C      242.638     260.185     -19.805
  N      243.577     260.148     -18.804
  O      241.084     255.919     -20.740
  O      238.959     255.543     -19.369
  H      243.424     260.921     -15.041
  H      241.218     255.016     -20.391
  H      247.390     262.172     -21.263
  H      241.629     259.824     -19.672
  H      244.411     259.612     -16.997
  H      242.286     261.440     -16.837
  H      248.812     262.035     -19.414
  H      240.722     259.886     -17.880
  H      248.247     261.267     -17.964
  H      241.807     257.806     -15.885
  H      241.279     256.197     -17.677
  H      239.819     257.053     -17.116
  P      239.280     261.135     -15.905
  C      237.139     261.852     -14.619
  O      237.904     260.779     -15.162
  O      238.851     261.246     -17.444
  O      239.988     262.356     -15.428
  H      238.644     262.174     -17.666
  H      236.255     261.463     -14.158
  H      236.865     262.527     -15.403
  H      237.723     262.372     -13.888

 6  7  8  9  10  11  12  13  14  15  26  29  33  34 0
 6-311+G(2d,p)
 ****
 36  38  39  40  41 0
 6-311+G(2d,p)
 ****
 1  2  3  4  5  16  17  18  19  20  21  22  23  24  25 0
 3-21G
 ****
 27  28  30  31  32  35  37  42  43  44  45  46  47 0
 3-21G
 ****
 48  49 0
 3-21G
 ****


