%nproc=1
%NoSave
%Mem=1900MB
#P OB98/GEN NMR

erre ene a

0 1
  C      138.123      77.312    -112.400
  O      138.063      78.079    -113.590
  P      138.565      79.601    -113.510
  C      136.184      80.561    -113.091
  O      137.501      80.365    -112.586
  C      135.408      81.517    -112.192
  O      135.060      80.866    -110.958
  C      136.186      82.760    -111.794
  O      136.215      83.692    -112.857
  C      135.397      83.233    -110.578
  O      134.294      84.066    -110.969
  C      134.895      81.903    -109.966
  N      135.576      81.568    -108.726
  C      135.350      82.439    -107.652
  O      134.630      83.427    -107.800
  N      135.978      82.186    -106.458
  C      136.762      81.160    -106.349
  N      137.355      80.956    -105.141
  C      137.043      80.231    -107.461
  C      136.426      80.494    -108.613
  O      138.259      80.162    -114.975
  O      139.998      79.767    -113.125
  H      133.954      84.459    -110.138
  H      138.859      80.899    -115.198
  H      137.706      79.390    -107.317
  H      136.576      79.864    -109.481
  H      133.820      81.963    -109.759
  H      136.016      83.823    -109.896
  H      137.207      82.495    -111.493
  H      134.478      81.795    -112.708
  H      137.150      81.615    -104.399
  H      135.661      79.599    -113.118
  H      137.965      80.174    -104.947
  H      136.251      80.952    -114.111
  P      137.437      84.725    -112.908
  C      135.833      86.557    -112.102
  O      137.048      85.874    -111.860
  O      137.201      85.459    -114.314
  O      138.813      84.161    -112.793
  H      137.948      86.053    -114.508
  H      135.612      87.194    -111.242
  H      135.013      85.846    -112.235
  H      135.928      87.185    -112.992
  H      137.761      76.324    -112.594
  H      137.517      77.773    -111.648
  H      139.136      77.260    -112.060

 3  4  5  6  7  8  9  10  11  12  13  21  23  27  28  29  30  32 0
 6-311+G(2d,p)
 ****
 34  35 0
 6-311+G(2d,p)
 ****
 1  2  14  15  16  17  18  19  20  22  24  25  26 0
 3-21G
 ****
 31  33  36  37  38  39  40  41  42  43  44  45  46 0
 3-21G
 ****


