%nproc=1
%NoSave
%Mem=1900MB
#P OB98/GEN NMR

erre ene a

0 1
  C      861.712    -522.384    -899.198
  O      862.426    -522.594    -897.948
  P      863.455    -521.451    -897.488
  C      862.174    -520.876    -895.308
  O      862.662    -520.425    -896.568
  C      862.201    -519.742    -894.278
  O      863.567    -519.519    -893.778
  C      861.711    -518.398    -894.798
  O      860.300    -518.294    -894.748
  C      862.335    -517.435    -893.798
  O      861.536    -517.413    -892.598
  C      863.696    -518.093    -893.528
  N      866.528    -513.976    -894.398
  C      865.521    -514.191    -893.478
  N      865.231    -513.147    -892.668
  N      864.856    -515.298    -893.358
  C      865.262    -516.260    -894.218
  C      866.241    -516.181    -895.198
  C      866.951    -514.919    -895.328
  O      867.846    -514.664    -896.158
  N      866.360    -517.349    -895.888
  C      865.473    -518.142    -895.338
  N      864.772    -517.537    -894.348
  O      863.696    -520.612    -898.838
  O      864.737    -521.981    -896.938
  H      860.668    -517.036    -892.848
  H      864.575    -520.204    -898.818
  H      866.991    -513.095    -894.468
  H      865.314    -519.183    -895.648
  H      864.009    -517.991    -892.468
  H      862.371    -516.414    -894.188
  H      865.733    -512.267    -892.648
  H      862.127    -518.212    -895.818
  H      864.520    -513.291    -891.938
  H      861.580    -520.061    -893.418
  H      862.756    -521.720    -894.948
  H      861.156    -521.261    -895.438
  P      859.518    -518.119    -896.148
  C      857.673    -519.938    -895.948
  O      858.911    -519.553    -896.518
  O      860.707    -517.900    -897.198
  O      858.553    -516.972    -896.168
  H      860.412    -517.304    -897.928
  H      857.347    -520.869    -896.448
  H      856.903    -519.159    -896.118
  H      857.806    -520.123    -894.868
  H      861.065    -523.216    -899.383
  H      862.415    -522.294    -900.000
  H      861.131    -521.488    -899.131

 3  4  5  6  7  8  9  10  11  12  23  26  30  31 0
 6-311+G(2d,p)
 ****
 33  35  36  37  38 0
 6-311+G(2d,p)
 ****
 1  2  13  14  15  16  17  18  19  20  21  22  24  25 0
 3-21G
 ****
 27  28  29  32  34  39  40  41  42  43  44  45  46  47  48  49 0
 3-21G
 ****


