%nproc=1
%NoSave
%Mem=1900MB
#P OB98/GEN NMR

erre ene a

0 1
  C      185.608    -133.212      56.408
  O      185.295    -132.039      57.147
  P      184.612    -130.813      56.369
  C      186.788    -129.629      55.603
  O      185.642    -129.581      56.440
  C      187.826    -128.591      56.030
  O      189.049    -128.807      55.274
  C      187.403    -127.137      55.803
  O      187.992    -126.353      56.848
  C      188.071    -126.787      54.485
  O      188.214    -125.381      54.308
  C      189.381    -127.556      54.631
  N      193.044    -126.030      51.407
  C      192.681    -125.585      52.629
  N      191.694    -126.045      53.427
  C      191.050    -127.070      52.843
  C      191.286    -127.609      51.589
  C      192.343    -127.047      50.853
  N      192.723    -127.506      49.612
  N      190.400    -128.633      51.328
  C      189.643    -128.712      52.403
  N      190.015    -127.804      53.354
  O      183.439    -130.377      57.367
  O      184.084    -131.133      55.013
  H      187.323    -124.979      54.329
  H      182.570    -130.586      56.970
  H      193.264    -124.756      53.021
  H      188.821    -129.401      52.540
  H      190.101    -127.030      55.270
  H      187.472    -127.174      53.652
  H      186.318    -126.985      55.778
  H      188.068    -128.759      57.086
  H      186.481    -129.414      54.575
  H      193.572    -127.143      49.209
  H      192.332    -128.379      49.274
  H      187.222    -130.635      55.634
  P      186.990    -125.676      57.902
  C      186.554    -123.185      57.326
  O      187.383    -124.127      57.981
  O      187.480    -126.267      59.307
  O      185.549    -125.974      57.649
  H      186.733    -126.293      59.935
  H      186.557    -122.254      57.898
  H      185.523    -123.542      57.233
  H      186.954    -122.988      56.326
  H      186.055    -133.935      57.058
  H      186.293    -132.967      55.623
  H      184.712    -133.617      55.986

 3  4  5  6  7  8  9  10  11  12  22  25  29  30  31  32 0
 6-311+G(2d,p)
 ****
 33  36  37 0
 6-311+G(2d,p)
 ****
 1  2  13  14  15  16  17  18  19  20  21  23  24  26 0
 3-21G
 ****
 27  28  34  35  38  39  40  41  42  43  44  45  46  47  48 0
 3-21G
 ****


