%nproc=1
%NoSave
%Mem=1900MB
#P OB98/GEN NMR

erre ene a

0 1
  C      160.542    -272.917     -62.141
  O      159.972    -272.196     -61.069
  H      160.511    -272.291     -63.036
  H      159.975    -273.830     -62.332
  H      161.585    -273.164     -61.923
  P      159.837    -272.914     -59.643
  C      158.249    -274.885     -60.153
  O      159.595    -274.474     -59.930
  C      157.973    -276.204     -59.422
  O      157.908    -275.916     -58.003
  C      156.641    -276.843     -59.848
  O      156.783    -278.202     -60.252
  C      155.720    -276.535     -58.674
  O      154.651    -277.448     -58.517
  C      156.680    -276.461     -57.484
  N      156.184    -275.648     -56.375
  C      155.496    -276.306     -55.357
  O      155.289    -277.515     -55.313
  N      155.042    -275.508     -54.340
  C      155.186    -274.154     -54.253
  O      154.758    -273.493     -53.314
  C      155.894    -273.512     -55.371
  C      156.352    -274.277     -56.364
  O      158.859    -272.293     -58.701
  O      161.324    -272.885     -59.050
  H      155.041    -278.348     -58.518
  H      161.382    -272.206     -58.351
  H      154.556    -275.973     -53.589
  H      156.018    -272.440     -55.339
  H      156.883    -273.837     -57.205
  H      156.887    -277.458     -57.094
  H      155.274    -275.547     -58.835
  H      156.245    -276.354     -60.746
  H      158.818    -276.883     -59.582
  H      158.112    -275.012     -61.232
  H      157.564    -274.112     -59.793
  P      157.157    -278.689     -61.722
  C      154.824    -278.522     -62.925
  O      156.140    -278.013     -62.758
  O      157.410    -280.149     -61.884
  O      158.542    -277.922     -62.035
  H      159.057    -278.515     -62.620
  H      154.306    -277.938     -63.656
  H      154.301    -278.472     -61.993
  H      154.874    -279.540     -63.252

 6  7  8  9  10  11  12  13  14  15  16  26  31  32  33  34  35 0
 6-311+G(2d,p)
 ****
 36  37 0
 6-311+G(2d,p)
 ****
 1  2  3  4  5  17  18  19  20  21  22  23  24  25 0
 3-21G
 ****
 27  28  29  30  38  39  40  41  42  43  44  45 0
 3-21G
 ****


