%nproc=1
%NoSave
%Mem=1900MB
#P OB98/GEN NMR

erre ene a

0 1
  C      216.350     641.955     205.136
  O      215.512     642.821     205.875
  H      216.536     641.057     205.732
  H      217.303     642.448     204.928
  H      215.865     641.664     204.199
  P      214.959     644.121     205.106
  C      216.094     646.357     204.319
  O      216.216     645.116     204.992
  C      217.464     646.838     203.837
  O      218.290     647.133     204.990
  C      218.214     645.817     202.974
  O      218.918     646.519     201.951
  C      219.192     645.184     203.945
  O      220.318     644.619     203.266
  C      219.502     646.361     204.878
  N      219.976     645.918     206.189
  C      221.328     646.128     206.471
  O      222.068     646.641     205.628
  N      221.827     645.713     207.683
  C      221.055     645.081     208.516
  N      221.609     644.676     209.684
  C      219.636     644.793     208.237
  C      219.164     645.245     207.072
  O      214.038     644.796     206.228
  O      214.260     643.823     203.821
  H      220.968     644.333     203.946
  H      214.430     644.775     207.119
  H      219.036     644.245     208.951
  H      218.126     645.079     206.793
  H      220.270     647.011     204.435
  H      218.698     644.373     204.504
  H      217.555     645.070     202.521
  H      217.328     647.788     203.299
  H      222.594     644.874     209.830
  H      215.656     647.109     204.985
  H      221.121     644.130     210.382
  H      215.418     646.218     203.469
  P      218.571     646.219     200.414
  C      219.867     645.082     198.488
  O      219.550     645.059     199.878
  O      218.465     647.421     199.522
  O      217.161     645.456     200.500
  H      216.606     645.759     199.756
  H      220.520     644.266     198.258
  H      220.351     646.005     198.248
  H      218.968     644.991     197.916

 6  7  8  9  10  11  12  13  14  15  16  26  30  31  32  33  35 0
 6-311+G(2d,p)
 ****
 37  38 0
 6-311+G(2d,p)
 ****
 1  2  3  4  5  17  18  19  20  21  22  23  24  25 0
 3-21G
 ****
 27  28  29  34  36  39  40  41  42  43  44  45  46 0
 3-21G
 ****


