%nproc=1
%NoSave
%Mem=1900MB
#P OB98/GEN NMR

erre ene a

0 1
  C      221.804      23.931     240.491
  O      221.177      22.717     240.851
  H      222.616      23.713     239.794
  H      222.225      24.413     241.379
  H      221.095      24.607     240.004
  P      219.836      22.766     241.725
  C      217.455      23.411     240.963
  O      218.613      22.632     240.698
  C      216.378      23.159     239.900
  O      216.939      23.465     238.587
  C      215.872      21.703     239.846
  O      214.508      21.751     239.400
  C      216.783      21.125     238.775
  O      216.358      19.862     238.325
  C      216.761      22.288     237.772
  N      217.771      22.229     236.722
  C      217.701      21.178     235.812
  O      216.841      20.298     235.832
  N      218.678      21.159     234.850
  C      219.680      22.072     234.702
  O      220.508      22.018     233.800
  C      219.705      23.154     235.697
  C      218.767      23.190     236.644
  O      219.731      23.899     242.690
  O      219.825      21.350     242.475
  H      220.117      21.468     243.401
  H      216.980      19.544     237.636
  H      218.636      20.406     234.176
  H      220.495      23.891     235.616
  H      218.751      23.980     237.387
  H      215.770      22.361     237.310
  H      217.789      20.977     239.178
  H      215.925      21.192     240.808
  H      215.549      23.859     240.064
  H      217.743      24.468     240.950
  H      217.070      23.157     241.955
  P      213.269      21.285     240.303
  C      213.123      22.411     242.636
  O      212.844      22.523     241.242
  O      213.504      20.015     241.055
  O      212.038      21.132     239.293
  H      211.396      20.490     239.646
  H      212.792      23.296     243.138
  H      214.177      22.292     242.780
  H      212.610      21.561     243.035

 6  7  8  9  10  11  12  13  14  15  16  27  31  32  33  34  35 0
 6-311+G(2d,p)
 ****
 36  37 0
 6-311+G(2d,p)
 ****
 1  2  3  4  5  17  18  19  20  21  22  23  24  25 0
 3-21G
 ****
 26  28  29  30  38  39  40  41  42  43  44  45 0
 3-21G
 ****


