%nproc=1
%NoSave
%Mem=1900MB
#P OB98/GEN NMR

erre ene a

0 1
  C     -398.898     712.253     372.819
  O     -398.017     713.327     372.468
  P     -397.275     713.211     371.041
  C     -396.748     714.812     369.060
  O     -397.189     714.683     370.409
  C     -396.635     716.287     368.658
  O     -397.933     716.914     368.480
  C     -395.895     717.135     369.690
  O     -394.498     716.962     369.542
  C     -396.366     718.552     369.315
  O     -395.583     719.094     368.238
  C     -397.816     718.305     368.870
  N     -400.475     722.018     371.091
  C     -399.398     722.097     370.210
  N     -398.996     723.334     369.864
  N     -398.787     721.044     369.730
  C     -399.303     719.866     370.162
  C     -400.368     719.677     371.002
  C     -401.044     720.831     371.547
  O     -402.004     720.829     372.298
  N     -400.640     718.321     371.173
  C     -399.647     717.721     370.531
  N     -398.851     718.618     369.846
  O     -398.347     712.454     370.121
  O     -395.986     712.463     371.105
  H     -395.791     720.047     368.156
  H     -398.036     711.548     369.937
  H     -400.896     722.862     371.440
  H     -399.488     716.671     370.504
  H     -398.061     718.890     367.965
  H     -396.264     719.230     370.169
  H     -399.426     724.203     370.201
  H     -396.236     716.872     370.699
  H     -398.210     723.415     369.215
  H     -396.106     716.331     367.690
  H     -397.437     714.286     368.393
  H     -395.780     714.305     368.957
  P     -393.792     715.844     370.448
  C     -391.403     714.846     370.644
  O     -392.257     715.728     369.980
  O     -394.457     714.474     369.915
  O     -394.004     715.995     371.922
  H     -394.692     713.908     370.680
  H     -390.623     714.491     369.945
  H     -391.945     713.967     371.034
  H     -390.906     715.367     371.474
  H     -399.327     712.443     373.781
  H     -398.348     711.336     372.849
  H     -399.677     712.178     372.089

 3  4  5  6  7  8  9  10  11  12  23  26  30  31 0
 6-311+G(2d,p)
 ****
 33  35  36  37  38 0
 6-311+G(2d,p)
 ****
 1  2  13  14  15  16  17  18  19  20  21  22  24  25 0
 3-21G
 ****
 27  28  29  32  34  39  40  41  42  43  44  45  46  47  48  49 0
 3-21G
 ****


