%nproc=1
%NoSave
%Mem=1900MB
#P OB98/GEN NMR

erre ene a

0 1
  C       -8.923     -57.263     -95.599
  O       -9.814     -56.859     -96.651
  P      -11.356     -57.289     -96.522
  C      -11.517     -58.451     -98.868
  O      -11.906     -57.372     -98.027
  C      -11.420     -57.975    -100.317
  O      -10.144     -57.329    -100.559
  C      -11.509     -59.093    -101.347
  O      -12.844     -59.566    -101.484
  C      -10.950     -58.397    -102.580
  O      -11.958     -57.579    -103.197
  C       -9.847     -57.500    -101.965
  N       -8.503     -58.026    -102.167
  C       -7.700     -57.316    -103.059
  O       -8.091     -56.319    -103.668
  N       -6.434     -57.807    -103.247
  C       -5.916     -58.926    -102.662
  O       -4.766     -59.311    -102.855
  C       -6.825     -59.662    -101.770
  C       -8.058     -59.191    -101.567
  O      -11.998     -55.950     -95.933
  O      -11.551     -58.511     -95.686
  H      -11.580     -55.142     -96.276
  H      -12.193     -56.891    -102.543
  H       -5.834     -57.298    -103.874
  H       -6.455     -60.571    -101.310
  H       -8.746     -59.720    -100.913
  H       -9.889     -56.496    -102.408
  H      -10.592     -59.105    -103.337
  H      -10.851     -59.922    -101.057
  H      -12.219     -57.235    -100.488
  H      -12.254     -59.257     -98.804
  H      -10.559     -58.848     -98.515
  P      -13.039     -61.159    -101.615
  C      -12.961     -61.601    -104.190
  O      -13.741     -61.415    -103.032
  O      -14.204     -61.415    -100.544
  O      -11.789     -61.939    -101.362
  H      -14.921     -60.762    -100.598
  H      -13.574     -62.096    -104.953
  H      -12.088     -62.224    -103.989
  H      -12.639     -60.630    -104.576
  H       -7.935     -56.911     -95.813
  H       -8.914     -58.331     -95.529
  H       -9.256     -56.848     -94.671

 3  4  5  6  7  8  9  10  11  12  13  24  28  29  30  31  32 0
 6-311+G(2d,p)
 ****
 33  34 0
 6-311+G(2d,p)
 ****
 1  2  14  15  16  17  18  19  20  21  22  23  25  26  27 0
 3-21G
 ****
 35  36  37  38  39  40  41  42  43  44  45 0
 3-21G
 ****


