%nproc=1
%NoSave
%Mem=1900MB
#P OB98/GEN NMR

erre ene a

0 1
  C      529.817    -235.066     275.185
  O      529.207    -236.304     275.573
  P      527.609    -236.297     275.754
  C      527.425    -236.957     278.269
  O      527.299    -235.933     277.285
  C      526.811    -236.509     279.595
  O      527.498    -235.362     280.130
  C      525.351    -236.089     279.499
  O      524.480    -237.206     279.468
  C      525.185    -235.298     280.791
  O      524.933    -236.209     281.882
  C      526.566    -234.635     280.952
  N      526.037    -229.822     282.475
  C      525.946    -230.998     283.196
  N      525.715    -230.869     284.525
  N      526.079    -232.189     282.677
  C      526.344    -232.160     281.347
  C      526.446    -231.063     280.517
  C      526.270    -229.755     281.112
  O      526.300    -228.680     280.501
  N      526.731    -231.431     279.227
  C      526.820    -232.752     279.276
  N      526.581    -233.236     280.542
  O      527.227    -237.850     275.660
  O      526.889    -235.482     274.734
  H      524.858    -235.669     282.697
  H      526.315    -237.953     275.337
  H      525.918    -228.932     282.926
  H      527.060    -233.387     278.433
  H      526.927    -234.688     281.989
  H      524.341    -234.603     280.757
  H      525.676    -229.982     285.010
  H      525.192    -235.419     278.632
  H      525.685    -231.724     285.081
  H      526.914    -237.339     280.307
  H      528.478    -237.195     278.418
  H      526.939    -237.867     277.894
  P      523.686    -237.481     278.106
  C      521.251    -236.694     278.502
  O      522.540    -236.369     278.019
  O      522.895    -238.840     278.417
  O      524.560    -237.621     276.897
  H      522.749    -239.349     277.603
  H      521.303    -237.245     279.447
  H      520.721    -237.295     277.762
  H      520.693    -235.770     278.664
  H      530.875    -235.201     275.099
  H      529.612    -234.320     275.924
  H      529.419    -234.753     274.242

 3  4  5  6  7  8  9  10  11  12  23  26  30  31  33  0
 6-311+G(2d,p)
 ****
 35  36  37  38 0
 6-311+G(2d,p)
 ****
 1  2  13  14  15  16  17  18  19  20  21  22  24  25  27  28  29 0
 3-21G
 ****
 32  34  39  40  41  42  43  44  45  46  47  48  49 0
 3-21G
 ****


