%nproc=1
%NoSave
%Mem=1900MB
#P OB98/GEN NMR

erre ene a

0 1
  C     -346.471     166.547     -96.311
  O     -345.605     165.651     -96.975
  H     -346.426     166.354     -95.232
  H     -347.504     166.407     -96.651
  H     -346.162     167.581     -96.495
  P     -345.614     165.712     -98.581
  C     -347.388     164.935    -100.329
  O     -347.081     165.184     -98.970
  C     -348.882     165.149    -100.572
  O     -349.636     163.987    -100.152
  C     -349.476     166.322     -99.799
  O     -349.202     167.579    -100.394
  C     -350.954     165.977     -99.880
  O     -351.456     166.290    -101.192
  C     -350.914     164.448     -99.650
  N     -351.082     164.074     -98.240
  C     -352.382     164.066     -97.730
  O     -353.337     164.375     -98.450
  N     -352.581     163.742     -96.403
  C     -351.565     163.440     -95.650
  N     -351.817     163.144     -94.353
  C     -350.175     163.419     -96.147
  C     -350.010     163.736     -97.426
  O     -344.683     164.477     -99.009
  O     -345.216     167.016     -99.181
  H     -352.405     166.047    -101.193
  H     -344.721     164.348     -99.988
  H     -349.356     163.164     -95.486
  H     -349.008     163.748     -97.869
  H     -351.701     163.946    -100.225
  H     -351.566     166.532     -99.159
  H     -349.170     166.306     -98.748
  H     -349.039     165.260    -101.657
  H     -352.767     163.221     -94.016
  H     -347.120     163.900    -100.563
  H     -351.084     163.076     -93.655
  H     -346.818     165.605    -100.977
  P     -349.799     168.885     -99.683
  C     -351.816     170.473    -100.140
  O     -351.181     169.229    -100.425
  O     -348.831     170.056    -100.202
  O     -349.858     168.827     -98.187
  H     -348.648     170.696     -99.486
  H     -352.719     170.551    -100.709
  H     -351.159     171.277    -100.401
  H     -352.047     170.525     -99.096

 6  7  8  9  10  11  12  13  14  15  16  26  30  31  32  33  35 0
 6-311+G(2d,p)
 ****
 37  38 0
 6-311+G(2d,p)
 ****
 1  2  3  4  5  17  18  19  20  21  22  23  24  25 0
 3-21G
 ****
 27  28  29  34  36  39  40  41  42  43  44  45  46 0
 3-21G
 ****


