%nproc=1
%NoSave
%Mem=1900MB
#P OB98/GEN NMR

erre ene a

0 1
  C      144.805    -555.424     748.603
  O      145.675    -556.354     747.953
  P      146.123    -557.729     748.650
  C      148.582    -557.111     749.072
  O      147.357    -557.489     749.671
  C      149.797    -557.281     750.007
  O      151.049    -557.129     749.266
  C      149.849    -556.290     751.190
  O      150.488    -556.995     752.266
  C      150.762    -555.198     750.644
  O      151.311    -554.368     751.663
  C      151.782    -556.034     749.870
  N      154.694    -556.355     745.686
  C      153.985    -557.300     746.349
  N      153.216    -557.122     747.438
  C      153.176    -555.832     747.796
  C      153.850    -554.771     747.214
  C      154.650    -555.069     746.100
  N      155.401    -554.125     745.445
  N      153.561    -553.597     747.884
  C      152.775    -553.942     748.864
  N      152.495    -555.276     748.855
  O      146.350    -558.868     747.694
  O      144.895    -558.089     749.634
  H      150.571    -553.902     752.086
  H      144.676    -559.032     749.539
  H      154.068    -558.303     745.952
  H      152.380    -553.258     749.634
  H      152.524    -556.474     750.554
  H      150.176    -554.557     749.971
  H      148.862    -555.930     751.492
  H      149.782    -558.312     750.374
  H      148.529    -556.050     748.737
  H      156.030    -554.471     744.728
  H      155.481    -553.199     745.832
  H      148.735    -557.728     748.155
  P      149.645    -557.939     753.245
  C      148.973    -556.138     754.939
  O      148.525    -557.030     753.926
  O      150.490    -558.713     754.215
  O      148.810    -558.921     752.288
  H      148.525    -559.699     752.777
  H      149.158    -556.692     755.873
  H      148.190    -555.380     755.124
  H      149.882    -555.617     754.633
  H      144.639    -554.583     747.963
  H      145.254    -555.094     749.516
  H      143.870    -555.899     748.817

 3  4  5  6  7  8  9  10  11  12  22  25  29  30  31  32 0
 6-311+G(2d,p)
 ****
 33  36  37 0
 6-311+G(2d,p)
 ****
 1  2  13  14  15  16  17  18  19  20  21  23  24  26 0
 3-21G
 ****
 27  28  34  35  38  39  40  41  42  43  44  45  46  47  48 0
 3-21G
 ****


