%nproc=1
%NoSave
%Mem=1900MB
#P OB98/GEN NMR

erre ene a

0 1
  C      112.627     477.623    -463.779
  O      111.733     478.697    -463.561
  H      112.318     477.083    -464.674
  H      112.601     476.938    -462.924
  H      113.646     477.998    -463.926
  P      112.114     479.729    -462.393
  C      113.519     481.504    -463.729
  O      113.500     480.398    -462.839
  C      113.868     482.797    -462.985
  O      115.249     482.721    -462.544
  C      113.719     484.056    -463.837
  O      113.254     485.117    -462.996
  C      115.139     484.353    -464.278
  O      115.323     485.724    -464.627
  C      115.937     483.878    -463.053
  N      117.332     483.579    -463.376
  C      118.295     484.476    -462.914
  O      117.955     485.481    -462.281
  N      119.610     484.255    -463.216
  C      119.941     483.252    -463.971
  N      121.261     483.095    -464.251
  C      118.955     482.297    -464.517
  C      117.685     482.513    -464.170
  O      112.533     478.740    -461.207
  O      111.027     480.695    -462.039
  H      116.285     485.900    -464.700
  H      113.104     478.012    -461.495
  H      119.274     481.482    -465.145
  H      116.893     481.858    -464.520
  H      115.928     484.647    -462.263
  H      115.395     483.747    -465.152
  H      113.031     483.925    -464.676
  H      113.247     482.854    -462.081
  H      121.900     483.787    -463.877
  H      112.544     481.616    -464.217
  H      121.628     482.386    -464.869
  H      114.267     481.300    -464.504
  P      112.154     486.148    -463.555
  C      110.009     484.769    -463.102
  O      110.882     485.324    -464.081
  O      112.668     487.200    -464.480
  O      111.591     486.821    -462.208
  H      111.467     487.773    -462.383
  H      109.210     484.250    -463.590
  H      109.607     485.554    -462.496
  H      110.554     484.086    -462.485

 6  7  8  9  10  11  12  13  14  15  16  26  30  31  32  33  35 0
 6-311+G(2d,p)
 ****
 37  38 0
 6-311+G(2d,p)
 ****
 1  2  3  4  5  17  18  19  20  21  22  23  24  25 0
 3-21G
 ****
 27  28  29  34  36  39  40  41  42  43  44  45  46 0
 3-21G
 ****


