%nproc=1
%NoSave
%Mem=1900MB
#P OB98/GEN NMR

erre ene a

0 1
  C      618.968    -181.013     918.923
  O      618.786    -179.643     918.619
  H      620.031    -181.208     919.059
  H      618.600    -181.638     918.099
  H      618.435    -181.267     919.846
  P      617.283    -179.158     918.345
  C      615.571    -179.668     916.468
  O      616.917    -179.783     916.904
  C      615.525    -179.496     914.954
  O      616.297    -180.524     914.305
  C      614.123    -179.601     914.356
  O      613.446    -178.347     914.454
  C      614.441    -179.938     912.904
  O      614.786    -178.737     912.193
  C      615.669    -180.853     913.039
  N      614.478    -184.865     910.071
  C      614.494    -183.534     909.810
  N      614.775    -182.521     910.665
  C      615.053    -182.994     911.888
  C      615.070    -184.327     912.292
  C      614.772    -185.288     911.313
  N      614.745    -186.642     911.578
  N      615.399    -184.431     913.636
  C      615.633    -183.183     914.012
  N      615.415    -182.277     913.004
  O      617.033    -177.696     918.516
  O      616.465    -180.111     919.351
  H      615.613    -178.397     912.595
  H      616.834    -181.007     919.341
  H      614.262    -183.248     908.791
  H      616.006    -182.899     914.993
  H      616.415    -180.648     912.248
  H      613.591    -180.388     912.382
  H      613.545    -180.422     914.799
  H      615.976    -178.534     914.691
  H      615.089    -178.817     916.954
  H      614.331    -187.241     910.876
  H      614.838    -186.941     912.538
  H      615.051    -180.579     916.770
  P      611.977    -178.243     915.088
  C      609.646    -179.110     914.412
  O      611.009    -178.942     914.011
  O      611.580    -176.866     915.516
  O      611.992    -179.297     916.300
  H      611.245    -179.118     916.897
  H      609.098    -179.582     913.624
  H      609.216    -178.153     914.623
  H      609.605    -179.721     915.290

 6  7  8  9  10  11  12  13  14  15  25  28  32  33  34  35 0
 6-311+G(2d,p)
 ****
 36  39  40 0
 6-311+G(2d,p)
 ****
 1  2  3  4  5  16  17  18  19  20  21  22  23  24 0
 3-21G
 ****
 26  27  29  30  31  37  38  41  42  43  44  45  46  47 0
 3-21G
 ****
 48 0
 3-21G
 ****


