%nproc=1
%NoSave
%Mem=1900MB
#P OB98/GEN NMR

erre ene a

0 1
  C      225.730    -102.834     104.954
  O      224.739    -102.339     105.860
  P      223.227    -102.806     105.575
  C      222.530    -100.582     104.440
  O      222.688    -101.988     104.303
  C      221.474    -100.039     103.470
  O      221.884    -100.241     102.086
  C      220.096    -100.694     103.626
  O      219.114     -99.686     103.348
  C      220.084    -101.716     102.503
  O      218.755    -102.138     102.192
  C      220.797    -100.918     101.413
  N      219.884    -102.443      96.687
  C      219.110    -101.680      97.540
  N      217.941    -101.215      97.044
  N      219.450    -101.400      98.773
  C      220.665    -101.901      99.116
  C      221.530    -102.652      98.358
  C      221.125    -102.983      97.008
  O      221.775    -103.650      96.208
  N      222.684    -102.951      99.052
  C      222.472    -102.426     100.248
  N      221.291    -101.735     100.322
  O      222.416    -102.183     106.806
  O      223.062    -104.289     105.495
  H      218.415    -102.638     102.965
  H      222.244    -102.869     107.478
  H      219.562    -102.643      95.753
  H      223.149    -102.497     101.085
  H      220.146    -100.161     100.959
  H      220.666    -102.602     102.786
  H      217.642    -101.349      96.090
  H      219.913    -101.143     104.608
  H      217.374    -100.618      97.637
  H      221.386     -98.956     103.631
  H      223.481    -100.077     104.251
  H      222.265    -100.352     105.479
  P      218.299     -99.072     104.585
  C      216.864    -101.205     104.903
  O      217.791    -100.302     105.474
  O      216.957     -98.526     103.900
  O      219.010     -97.979     105.320
  H      216.695     -97.681     104.316
  H      216.972    -102.176     105.392
  H      217.031    -101.334     103.829
  H      215.849    -100.837     105.068
  H      226.692    -102.461     105.239
  H      225.501    -102.507     103.961
  H      225.739    -103.904     104.985

 3  4  5  6  7  8  9  10  11  12  23  26  30  31 0
 6-311+G(2d,p)
 ****
 33  35  36  37  38 0
 6-311+G(2d,p)
 ****
 1  2  13  14  15  16  17  18  19  20  21  22  24  25 0
 3-21G
 ****
 27  28  29  32  34  39  40  41  42  43  44  45  46  47  48  49 0
 3-21G
 ****


