%nproc=1
%NoSave
%Mem=1900MB
#P OB98/GEN NMR

erre ene a

0 1
  C       73.772     -49.232    -146.402
  O       72.700     -48.558    -145.776
  H       74.536     -49.452    -145.650
  H       74.215     -48.596    -147.172
  H       73.438     -50.174    -146.847
  P       71.331     -48.355    -146.587
  C       72.643     -46.837    -148.211
  O       71.743     -47.929    -148.080
  C       73.195     -46.758    -149.638
  O       73.951     -47.978    -149.912
  C       72.105     -46.640    -150.727
  O       72.657     -45.863    -151.799
  C       71.942     -48.094    -151.133
  O       71.232     -48.225    -152.336
  C       73.408     -48.534    -151.128
  N       73.582     -49.982    -151.176
  C       73.836     -50.555    -152.419
  O       73.941     -49.912    -153.462
  N       73.956     -51.921    -152.429
  C       73.846     -52.745    -151.349
  O       73.986     -53.962    -151.414
  C       73.549     -52.083    -150.067
  C       73.433     -50.753    -150.039
  O       70.315     -47.477    -145.937
  O       70.784     -49.847    -146.782
  H       70.113     -50.041    -146.099
  H       71.586     -47.610    -153.013
  H       74.140     -52.353    -153.324
  H       73.435     -52.711    -149.194
  H       73.213     -50.229    -149.113
  H       73.953     -48.078    -151.961
  H       71.373     -48.637    -150.372
  H       71.190     -46.167    -150.363
  H       73.905     -45.924    -149.698
  H       73.465     -46.985    -147.502
  H       72.120     -45.906    -147.961
  P       72.771     -44.261    -151.758
  C       70.745     -43.684    -153.249
  O       71.310     -43.620    -151.946
  O       73.786     -43.710    -152.707
  O       73.159     -43.898    -150.247
  H       73.761     -43.128    -150.246
  H       69.778     -43.226    -153.241
  H       70.653     -44.707    -153.548
  H       71.379     -43.167    -153.938

 6  7  8  9  10  11  12  13  14  15  16  27  31  32  33  34  35 0
 6-311+G(2d,p)
 ****
 36  37 0
 6-311+G(2d,p)
 ****
 1  2  3  4  5  17  18  19  20  21  22  23  24  25 0
 3-21G
 ****
 26  28  29  30  38  39  40  41  42  43  44  45 0
 3-21G
 ****


