%nproc=1
%NoSave
%Mem=1900MB
#P OB98/GEN NMR

erre ene a

0 1
  C       -5.993    -234.059    -281.431
  O       -7.052    -233.249    -280.914
  P       -8.602    -233.608    -281.103
  C       -9.292    -232.125    -283.095
  O       -9.008    -233.449    -282.645
  C       -9.556    -232.088    -284.601
  O       -8.368    -232.455    -285.336
  C      -10.637    -233.047    -285.090
  O      -11.935    -232.557    -284.776
  C      -10.330    -233.117    -286.578
  O      -10.894    -231.996    -287.279
  C       -8.785    -233.050    -286.585
  N       -8.166    -234.352    -286.789
  C       -8.548    -235.055    -287.938
  O       -9.399    -234.592    -288.693
  N       -7.955    -236.273    -288.190
  C       -7.130    -236.777    -287.334
  N       -6.575    -237.983    -287.641
  C       -6.767    -236.111    -286.058
  C       -7.322    -234.918    -285.862
  O       -9.516    -232.899    -280.162
  O       -8.686    -235.195    -280.862
  H      -10.750    -232.170    -288.230
  H       -9.563    -235.420    -280.477
  H       -6.099    -236.581    -285.359
  H       -7.109    -234.354    -284.950
  H       -8.436    -232.367    -287.373
  H      -10.726    -234.023    -287.054
  H      -10.488    -234.035    -284.635
  H       -9.812    -231.056    -284.872
  H       -6.830    -238.409    -288.518
  H       -8.423    -231.494    -282.869
  H       -5.912    -238.461    -287.040
  H      -10.161    -231.746    -282.544
  P      -12.850    -233.349    -283.721
  C      -13.951    -234.857    -285.489
  O      -13.137    -234.808    -284.325
  O      -14.050    -232.606    -283.235
  O      -11.846    -233.674    -282.512
  H      -12.349    -233.678    -281.677
  H      -13.740    -235.791    -286.016
  H      -13.732    -234.010    -286.154
  H      -15.000    -234.824    -285.194
  H       -5.051    -233.618    -281.180
  H       -6.083    -234.127    -282.495
  H       -6.053    -235.039    -281.005

 3  4  5  6  7  8  9  10  11  12  13  23  27  28  29  30  32 0
 6-311+G(2d,p)
 ****
 34  35 0
 6-311+G(2d,p)
 ****
 1  2  14  15  16  17  18  19  20  21  22  24  25  26 0
 3-21G
 ****
 31  33  36  37  38  39  40  41  42  43  44  45  46 0
 3-21G
 ****


