%nproc=1
%NoSave
%Mem=1900MB
#P OB98/GEN NMR

erre ene a

0 1
  C     -195.606     498.246    1034.262
  O     -196.231     499.202    1035.090
  H     -196.152     497.295    1034.360
  H     -194.571     498.083    1034.575
  H     -195.643     498.563    1033.216
  P     -195.616     500.683    1035.179
  C     -195.509     502.691    1033.581
  O     -195.784     501.292    1033.704
  C     -195.700     503.171    1032.146
  O     -194.985     502.288    1031.233
  C     -197.182     503.189    1031.695
  O     -197.462     504.431    1031.042
  C     -197.267     502.054    1030.690
  O     -198.334     502.210    1029.751
  C     -195.844     502.082    1030.096
  N     -195.525     500.860    1029.367
  C     -196.276     500.617    1028.211
  O     -197.148     501.404    1027.860
  N     -196.065     499.452    1027.526
  C     -195.211     498.586    1027.973
  N     -195.076     497.427    1027.261
  C     -194.420     498.791    1029.213
  C     -194.624     499.932    1029.847
  O     -194.240     500.759    1035.750
  O     -196.686     501.521    1036.033
  H     -198.094     502.920    1029.127
  H     -196.241     502.308    1036.422
  H     -193.723     498.019    1029.545
  H     -194.095     500.174    1030.760
  H     -195.730     502.930    1029.409
  H     -197.418     501.098    1031.221
  H     -197.879     503.047    1032.525
  H     -195.241     504.159    1032.039
  H     -195.644     497.322    1026.426
  H     -194.477     502.874    1033.922
  H     -194.461     496.672    1027.526
  H     -196.197     503.241    1034.236
  P     -198.652     505.298    1031.678
  C     -198.455     506.780    1033.808
  O     -197.995     506.527    1032.494
  O     -199.254     504.343    1032.815
  O     -199.706     505.695    1030.677
  H     -200.137     504.033    1032.560
  H     -197.929     507.618    1034.215
  H     -198.281     505.919    1034.419
  H     -199.503     506.994    1033.784

 6  7  8  9  10  11  12  13  14  15  16  26  30  31  32  33  35 0
 6-311+G(2d,p)
 ****
 37  38 0
 6-311+G(2d,p)
 ****
 1  2  3  4  5  17  18  19  20  21  22  23  24  25 0
 3-21G
 ****
 27  28  29  34  36  39  40  41  42  43  44  45  46 0
 3-21G
 ****


