%nproc=1
%NoSave
%Mem=1900MB
#P OB98/GEN NMR

erre ene a

0 1
  C       42.617    -102.603    1098.146
  O       41.376    -102.242    1097.578
  H       42.837    -103.642    1097.885
  H       42.565    -102.516    1099.231
  H       43.399    -101.959    1097.755
  P       40.807    -100.784    1097.941
  C       38.927    -101.329    1096.210
  O       39.267    -100.867    1097.512
  C       37.887    -100.409    1095.573
  O       38.389     -99.050    1095.495
  C       37.512    -100.781    1094.126
  O       36.610    -101.866    1094.053
  C       36.866     -99.480    1093.689
  O       35.554     -99.358    1094.285
  C       37.838     -98.432    1094.289
  N       38.917     -98.052    1093.365
  C       38.851     -96.762    1092.822
  O       37.923     -96.012    1093.115
  N       39.823     -96.384    1091.923
  C       40.783     -97.191    1091.623
  N       41.706     -96.745    1090.724
  C       40.911     -98.556    1092.189
  C       39.952     -98.918    1093.044
  O       41.447     -99.851    1096.803
  O       41.049    -100.315    1099.335
  H       35.086    -100.181    1094.102
  H       41.038     -98.941    1096.843
  H       41.733     -99.206    1091.890
  H       39.977     -99.899    1093.494
  H       37.303     -97.531    1094.616
  H       36.732     -99.389    1092.614
  H       38.404    -100.956    1093.517
  H       37.018    -100.390    1096.217
  H       41.553     -95.830    1090.322
  H       38.514    -102.351    1096.312
  H       42.409     -97.354    1090.320
  H       39.828    -101.362    1095.582
  P       36.753    -102.848    1092.787
  C       35.731    -105.021    1093.762
  O       35.562    -103.914    1092.869
  O       38.069    -103.717    1093.114
  O       36.889    -102.145    1091.464
  H       38.568    -103.930    1092.293
  H       34.867    -105.650    1093.718
  H       35.857    -104.658    1094.761
  H       36.596    -105.582    1093.475

 6  7  8  9  10  11  12  13  14  15  16  26  30  31  32  33  35 0
 6-311+G(2d,p)
 ****
 37  38 0
 6-311+G(2d,p)
 ****
 1  2  3  4  5  17  18  19  20  21  22  23  24  25 0
 3-21G
 ****
 27  28  29  34  36  39  40  41  42  43  44  45  46 0
 3-21G
 ****


