%nproc=1
%NoSave
%Mem=1900MB
#P OB98/GEN NMR

erre ene a

0 1
  C      919.760     111.641     -84.386
  O      920.910     112.468     -84.370
  H      919.244     111.721     -85.346
  H      920.075     110.600     -84.236
  H      919.081     111.924     -83.573
  P      920.672     114.042     -84.563
  C      922.026     114.053     -86.781
  O      920.783     114.312     -86.145
  C      921.969     114.528     -88.235
  O      921.003     113.743     -88.972
  C      921.533     115.985     -88.392
  O      922.601     116.885     -88.189
  C      921.089     115.980     -89.853
  O      922.259     116.002     -90.715
  C      920.383     114.615     -89.971
  N      915.937     116.452     -91.706
  C      917.203     116.567     -92.169
  N      918.340     116.046     -91.642
  C      918.060     115.333     -90.525
  C      916.836     115.142     -89.939
  C      915.722     115.729     -90.586
  N      914.432     115.611     -90.108
  N      916.951     114.392     -88.775
  C      918.247     114.124     -88.695
  N      918.962     114.683     -89.716
  O      922.016     114.699     -83.982
  O      919.443     114.597     -83.913
  H      921.925     115.983     -91.633
  H      921.854     115.636     -83.759
  H      917.321     117.154     -93.071
  H      918.699     113.525     -87.926
  H      920.526     114.138     -90.941
  H      920.476     116.837     -90.116
  H      920.665     116.218     -87.770
  H      922.960     114.363     -88.688
  H      922.223     112.978     -86.761
  H      913.738     116.219     -90.530
  H      914.286     115.207     -89.186
  H      922.826     114.586     -86.238
  P      922.223     118.425     -87.896
  C      923.268     118.896     -90.227
  O      922.196     119.149     -89.337
  O      923.535     119.004     -87.208
  O      921.007     118.608     -87.046
  H      923.337     119.749     -86.623
  H      923.114     119.441     -91.135
  H      923.313     117.849     -90.442
  H      924.187     119.207     -89.776

 6  7  8  9  10  11  12  13  14  15  25  28  32  33  34  35 0
 6-311+G(2d,p)
 ****
 36  39  40 0
 6-311+G(2d,p)
 ****
 1  2  3  4  5  16  17  18  19  20  21  22  23  24 0
 3-21G
 ****
 26  27  29  30  31  37  38  41  42  43  44  45  46  47 0
 3-21G
 ****
 48 0
 3-21G
 ****


