%nproc=1
%NoSave
%Mem=1900MB
#P OB98/GEN NMR

erre ene a

0 1
  C      191.943     219.505    -150.957
  O      190.698     219.984    -151.441
  P      190.686     221.332    -152.311
  C      191.209     223.008    -150.391
  O      191.655     222.386    -151.584
  C      190.890     224.487    -150.644
  O      190.053     224.990    -149.561
  C      192.127     225.393    -150.735
  O      191.840     226.430    -151.685
  C      192.198     225.984    -149.336
  O      192.967     227.175    -149.271
  C      190.701     226.176    -149.048
  N      190.413     226.374    -147.628
  C      190.377     227.685    -147.162
  O      190.568     228.672    -147.875
  N      190.168     227.833    -145.815
  C      190.090     226.823    -144.896
  O      190.023     227.031    -143.687
  C      190.140     225.459    -145.446
  C      190.298     225.298    -146.759
  O      189.222     221.921    -152.052
  O      190.965     221.136    -153.768
  H      192.604     227.795    -149.932
  H      188.638     221.712    -152.811
  H      190.131     228.777    -145.459
  H      190.061     224.639    -144.749
  H      190.357     224.303    -147.193
  H      190.314     227.023    -149.623
  H      192.642     225.250    -148.658
  H      193.041     224.860    -151.016
  H      190.297     224.556    -151.573
  H      191.998     222.946    -149.636
  H      190.332     222.480    -150.008
  P      192.879     226.658    -152.889
  C      194.233     228.580    -151.746
  O      194.214     227.259    -152.242
  O      192.208     227.917    -153.624
  O      193.039     225.458    -153.776
  H      191.898     228.593    -153.000
  H      193.264     228.864    -151.313
  H      194.477     229.276    -152.557
  H      195.000     228.661    -150.969
  H      191.787     218.605    -150.399
  H      192.388     220.244    -150.324
  H      192.593     219.304    -151.783

 3  4  5  6  7  8  9  10  11  12  13  23  28  29  30  31  32 0
 6-311+G(2d,p)
 ****
 33  34 0
 6-311+G(2d,p)
 ****
 1  2  14  15  16  17  18  19  20  21  22  24  25  26 0
 3-21G
 ****
 27  35  36  37  38  39  40  41  42  43  44  45 0
 3-21G
 ****


