%nproc=1
%NoSave
%Mem=1900MB
#P OB98/GEN NMR

erre ene a

0 1
  C      151.300    -308.711     264.624
  O      151.442    -307.444     264.012
  H      150.877    -308.600     265.625
  H      150.623    -309.321     264.021
  H      152.270    -309.213     264.683
  P      152.372    -306.376     264.767
  C      154.826    -306.305     265.602
  O      153.825    -307.048     264.921
  C      156.134    -307.094     265.634
  O      155.899    -308.342     266.337
  C      156.712    -307.431     264.248
  O      158.038    -306.904     264.123
  C      156.794    -308.950     264.230
  O      157.987    -309.443     263.615
  C      156.727    -309.327     265.705
  N      157.774    -314.040     267.345
  C      158.349    -312.847     267.622
  N      157.957    -311.617     267.239
  C      156.831    -311.684     266.510
  C      156.116    -312.817     266.164
  C      156.643    -314.046     266.602
  N      156.089    -315.265     266.270
  N      155.012    -312.490     265.397
  C      155.083    -311.184     265.247
  N      156.174    -310.655     265.886
  O      151.796    -306.381     266.261
  O      152.369    -305.005     264.178
  H      158.733    -309.058     264.106
  H      151.665    -305.462     266.566
  H      159.253    -312.893     268.230
  H      154.402    -310.579     264.657
  H      157.714    -309.296     266.187
  H      155.936    -309.348     263.678
  H      156.085    -307.059     263.427
  H      156.865    -306.527     266.221
  H      154.505    -306.115     266.632
  H      156.599    -316.097     266.524
  H      155.310    -315.284     265.622
  H      154.967    -305.343     265.097
  P      158.223    -305.646     263.135
  C      156.271    -303.987     262.652
  O      157.188    -304.511     263.605
  O      157.591    -306.173     261.761
  O      159.638    -305.210     262.970
  H      157.999    -305.708     261.007
  H      155.656    -303.246     263.119
  H      155.655    -304.778     262.277
  H      156.812    -303.543     261.843

 6  7  8  9  10  11  12  13  14  15  25  28  32  33  34  35 0
 6-311+G(2d,p)
 ****
 36  39  40 0
 6-311+G(2d,p)
 ****
 1  2  3  4  5  16  17  18  19  20  21  22  23  24 0
 3-21G
 ****
 26  27  29  30  31  37  38  41  42  43  44  45  46  47  48 0
 3-21G
 ****


