%nproc=1
%NoSave
%Mem=1900MB
#P OB98/GEN NMR

erre ene a

0 1
  C     -491.444     430.563     -13.851
  O     -492.495     431.505     -13.776
  H     -491.867     429.559     -13.773
  H     -490.740     430.712     -13.028
  H     -490.924     430.657     -14.808
  P     -492.081     433.054     -13.766
  C     -493.056     433.489     -16.134
  O     -491.909     433.502     -15.296
  C     -492.624     433.664     -17.588
  O     -491.817     432.534     -17.998
  C     -493.777     433.711     -18.575
  O     -494.415     434.980     -18.619
  C     -493.061     433.388     -19.876
  O     -492.469     434.552     -20.462
  C     -491.984     432.386     -19.422
  N     -492.328     431.017     -19.795
  C     -491.256     430.128     -19.884
  O     -490.091     430.453     -19.670
  N     -491.572     428.856     -20.275
  C     -492.812     428.406     -20.621
  O     -493.016     427.267     -21.017
  C     -493.902     429.393     -20.522
  C     -493.616     430.635     -20.124
  O     -490.581     433.029     -13.204
  O     -492.968     433.938     -12.951
  H     -490.566     433.357     -12.286
  H     -492.160     434.282     -21.353
  H     -490.813     428.194     -20.348
  H     -494.900     429.074     -20.792
  H     -494.395     431.381     -20.054
  H     -491.017     432.631     -19.878
  H     -493.748     432.969     -20.610
  H     -494.498     432.912     -18.359
  H     -492.009     434.574     -17.665
  H     -493.720     434.315     -15.864
  H     -493.591     432.549     -15.995
  P     -495.759     435.167     -17.753
  C     -495.145     437.401     -16.503
  O     -495.323     435.992     -16.450
  O     -495.983     433.671     -17.233
  O     -496.887     435.744     -18.541
  H     -495.144     433.178     -17.171
  H     -494.856     437.761     -15.538
  H     -496.063     437.866     -16.797
  H     -494.382     437.638     -17.215

 6  7  8  9  10  11  12  13  14  15  16  27  31  32  33  34  35 0
 6-311+G(2d,p)
 ****
 36  37 0
 6-311+G(2d,p)
 ****
 1  2  3  4  5  17  18  19  20  21  22  23  24  25 0
 3-21G
 ****
 26  28  29  30  38  39  40  41  42  43  44  45 0
 3-21G
 ****


