%nproc=1
%NoSave
%Mem=1900MB
#P OB98/GEN NMR

erre ene a

0 1
  C      279.833      -0.113      26.848
  O      279.373       0.937      27.677
  P      280.444       2.030      28.152
  C      278.531       3.523      29.114
  O      279.767       2.874      29.345
  C      278.106       4.294      30.362
  O      279.184       5.151      30.805
  C      276.912       5.211      30.149
  O      275.694       4.492      30.155
  C      277.049       6.182      31.326
  O      276.481       5.626      32.524
  C      278.583       6.306      31.453
  N      279.085       7.568      30.888
  C      278.976       8.676      31.720
  O      278.462       8.633      32.842
  N      279.438       9.858      31.196
  C      279.948      10.031      29.942
  O      280.291      11.132      29.513
  C      280.017       8.820      29.101
  C      279.587       7.665      29.613
  O      280.499       3.080      26.933
  O      281.800       1.483      28.470
  H      275.507       5.590      32.378
  H      281.411       3.402      26.820
  H      279.396      10.672      31.793
  H      280.414       8.931      28.099
  H      279.612       6.764      29.011
  H      278.873       6.259      32.503
  H      276.533       7.128      31.132
  H      277.027       5.764      29.201
  H      277.903       3.574      31.165
  H      277.777       2.782      28.862
  H      278.635       4.206      28.257
  P      274.391       5.233      29.594
  C      273.530       2.801      29.146
  O      273.237       4.118      29.579
  O      274.808       5.422      28.049
  O      274.085       6.506      30.317
  H      275.366       4.698      27.731
  H      274.533       2.497      29.430
  H      273.414       2.758      28.055
  H      272.806       2.116      29.604
  H      279.017      -0.763      26.610
  H      280.592      -0.666      27.361
  H      280.238       0.296      25.946

 3  4  5  6  7  8  9  10  11  12  13  23  28  29  30  31  32 0
 6-311+G(2d,p)
 ****
 33  34 0
 6-311+G(2d,p)
 ****
 1  2  14  15  16  17  18  19  20  21  22  24  25  26 0
 3-21G
 ****
 27  35  36  37  38  39  40  41  42  43  44  45 0
 3-21G
 ****


