%nproc=1
%NoSave
%Mem=1900MB
#P OB98/GEN NMR

erre ene a

0 1
  C     -479.131    -298.908      98.802
  O     -480.429    -299.310      99.267
  P     -481.608    -298.225      99.106
  C     -483.356    -297.091     100.669
  O     -482.224    -297.946     100.571
  C     -483.419    -296.371     102.019
  O     -483.728    -297.336     103.054
  C     -482.129    -295.662     102.435
  O     -482.461    -294.442     103.111
  C     -481.527    -296.605     103.456
  O     -480.622    -295.939     104.342
  C     -482.795    -297.132     104.126
  N     -480.188    -299.396     107.840
  C     -480.218    -298.062     107.462
  N     -479.425    -297.221     108.158
  N     -480.961    -297.599     106.488
  C     -481.730    -298.552     105.901
  C     -481.803    -299.891     106.184
  C     -480.940    -300.400     107.239
  O     -480.830    -301.576     107.583
  N     -482.702    -300.537     105.370
  C     -483.173    -299.584     104.581
  N     -482.606    -298.360     104.864
  O     -482.756    -299.048      98.348
  O     -481.204    -297.007      98.340
  H     -480.618    -296.442     105.179
  H     -483.001    -298.588      97.534
  H     -479.585    -299.703     108.576
  H     -483.891    -299.723     103.789
  H     -483.221    -296.387     104.810
  H     -480.975    -297.405     102.946
  H     -478.873    -297.506     108.958
  H     -481.434    -295.447     101.606
  H     -479.457    -296.232     107.927
  H     -484.252    -295.655     101.983
  H     -484.267    -297.679     100.521
  H     -483.308    -296.360      99.850
  P     -481.925    -293.081     102.449
  C     -479.557    -292.104     101.993
  O     -480.326    -293.208     102.432
  O     -482.204    -291.984     103.578
  O     -482.572    -292.738     101.144
  H     -482.314    -291.103     103.178
  H     -480.148    -291.198     101.896
  H     -479.106    -292.353     101.023
  H     -478.747    -291.937     102.709
  H     -478.433    -299.704      98.959
  H     -478.811    -298.042      99.342
  H     -479.181    -298.679      97.758

 3  4  5  6  7  8  9  10  11  12  23  26  30  31  33  0
 6-311+G(2d,p)
 ****
 35  36  37  38 0
 6-311+G(2d,p)
 ****
 1  2  13  14  15  16  17  18  19  20  21  22  24  25  27  28  29 0
 3-21G
 ****
 32  34  39  40  41  42  43  44  45  46  47  48  49 0
 3-21G
 ****


