%nproc=1
%NoSave
%Mem=1900MB
#P OB98/GEN NMR

erre ene a

0 1
  C      576.101     -96.649    -425.195
  O      575.233     -96.940    -426.304
  P      574.832     -95.856    -427.416
  C      572.321     -96.048    -426.850
  O      573.310     -96.104    -427.870
  C      570.961     -95.602    -427.403
  O      571.147     -94.511    -428.367
  C      570.167     -96.712    -428.112
  O      568.785     -96.515    -427.767
  C      570.415     -96.401    -429.577
  O      569.482     -96.996    -430.458
  C      570.359     -94.859    -429.531
  N      570.872     -94.181    -430.722
  C      570.025     -94.103    -431.836
  O      568.914     -94.621    -431.835
  N      570.474     -93.408    -432.943
  C      571.657     -92.886    -432.948
  N      572.029     -92.219    -434.077
  C      572.587     -92.966    -431.812
  C      572.134     -93.618    -430.737
  O      575.789     -95.793    -428.567
  O      574.787     -94.450    -426.652
  H      575.103     -93.752    -427.244
  H      569.572     -97.969    -430.368
  H      573.562     -92.506    -431.852
  H      572.747     -93.704    -429.843
  H      569.332     -94.549    -429.334
  H      571.419     -96.764    -429.849
  H      570.457     -97.724    -427.817
  H      570.378     -95.183    -426.573
  H      571.365     -92.174    -434.845
  H      572.648     -95.330    -426.083
  H      572.913     -91.759    -434.186
  H      572.240     -97.034    -426.376
  P      568.258     -96.945    -426.312
  C      567.237     -99.144    -427.247
  O      567.036     -97.960    -426.516
  O      567.509     -95.618    -425.821
  O      569.310     -97.336    -425.319
  H      567.499     -95.589    -424.843
  H      566.758     -99.980    -426.717
  H      568.293     -99.388    -427.380
  H      566.775     -99.054    -428.236
  H      576.218     -97.526    -424.594
  H      575.674     -95.866    -424.604
  H      577.057     -96.338    -425.562

 3  4  5  6  7  8  9  10  11  12  13  24  27  28  29  30  32 0
 6-311+G(2d,p)
 ****
 34  35 0
 6-311+G(2d,p)
 ****
 1  2  14  15  16  17  18  19  20  21  22  23  25  26 0
 3-21G
 ****
 31  33  36  37  38  39  40  41  42  43  44  45  46 0
 3-21G
 ****


