%nproc=1
%NoSave
%Mem=1900MB
#P OB98/GEN NMR

erre ene a

0 1
  C      187.035     -67.879       5.889
  O      188.354     -68.402       5.795
  P      189.489     -67.775       6.733
  C      191.188     -67.906       4.778
  O      190.904     -68.233       6.130
  C      191.327     -69.167       3.922
  O      192.628     -69.776       4.195
  C      190.267     -70.242       4.175
  O      190.018     -70.903       2.935
  C      190.957     -71.192       5.123
  O      190.352     -72.492       5.138
  C      192.377     -71.151       4.565
  N      195.776     -74.789       5.737
  C      194.962     -74.641       4.672
  N      194.085     -73.637       4.427
  C      194.104     -72.733       5.435
  C      194.854     -72.787       6.595
  C      195.728     -73.873       6.734
  N      196.570     -74.038       7.811
  N      194.570     -71.702       7.401
  C      193.658     -71.010       6.742
  N      193.361     -71.582       5.530
  O      189.356     -68.634       8.074
  O      189.358     -66.313       7.007
  H      190.845     -73.048       5.772
  H      189.019     -68.073       8.806
  H      195.027     -75.415       3.903
  H      193.197     -70.096       7.087
  H      192.487     -71.776       3.671
  H      190.918     -70.802       6.145
  H      189.319     -69.846       4.583
  H      191.327     -68.870       2.864
  H      192.133     -67.355       4.745
  H      197.268     -74.756       7.773
  H      196.678     -73.266       8.461
  H      190.392     -67.273       4.378
  P      188.489     -71.083       2.489
  C      188.356     -73.655       2.791
  O      188.340     -72.561       1.889
  O      188.368     -70.140       1.184
  O      187.499     -70.706       3.540
  H      187.454     -69.827       1.101
  H      187.706     -74.451       2.403
  H      188.011     -73.371       3.792
  H      189.376     -74.047       2.869
  H      186.396     -68.397       5.205
  H      187.046     -66.837       5.647
  H      186.670     -68.009       6.886

 3  4  5  6  7  8  9  10  11  12  22  25  29  30  31  32 0
 6-311+G(2d,p)
 ****
 33  36  37 0
 6-311+G(2d,p)
 ****
 1  2  13  14  15  16  17  18  19  20  21  23  24  26 0
 3-21G
 ****
 27  28  34  35  38  39  40  41  42  43  44  45  46  47  48 0
 3-21G
 ****


