%nproc=1
%NoSave
%Mem=1900MB
#P OB98/GEN NMR

erre ene a

0 1
  C     -130.877    -218.961      92.313
  O     -132.022    -218.785      91.480
  P     -132.184    -219.373      90.005
  C     -132.112    -218.408      87.557
  O     -131.982    -218.182      88.956
  C     -131.007    -217.677      86.776
  O     -131.176    -216.236      86.974
  C     -129.599    -218.038      87.263
  O     -128.662    -218.225      86.204
  C     -129.297    -216.942      88.273
  O     -127.911    -216.791      88.544
  C     -130.000    -215.735      87.652
  N     -128.421    -211.918      90.655
  C     -127.678    -212.809      89.908
  N     -126.331    -212.688      89.982
  N     -128.200    -213.754      89.174
  C     -129.547    -213.820      89.251
  C     -130.395    -212.999      89.965
  C     -129.808    -211.926      90.739
  O     -130.422    -211.094      91.398
  N     -131.709    -213.363      89.792
  C     -131.656    -214.412      88.991
  N     -130.361    -214.724      88.629
  O     -133.356    -220.270      89.783
  O     -130.850    -220.259      89.801
  H     -127.452    -216.666      87.688
  H     -131.102    -221.000      89.212
  H     -127.965    -211.194      91.186
  H     -132.507    -214.970      88.632
  H     -129.370    -215.229      86.914
  H     -129.779    -217.222      89.219
  H     -125.861    -212.064      90.623
  H     -129.603    -219.008      87.776
  H     -125.795    -213.475      89.616
  H     -131.135    -217.889      85.708
  H     -133.093    -218.013      87.277
  H     -132.107    -219.475      87.339
  P     -127.462    -219.277      86.105
  C     -125.398    -219.925      87.477
  O     -126.399    -218.953      87.257
  O     -126.677    -218.880      84.766
  O     -127.899    -220.711      86.048
  H     -126.708    -219.628      84.132
  H     -124.909    -219.723      88.439
  H     -124.649    -219.868      86.687
  H     -125.826    -220.933      87.506
  H     -131.035    -218.463      93.247
  H     -130.017    -218.547      91.829
  H     -130.720    -220.005      92.488

 3  4  5  6  7  8  9  10  11  12  23  26  30  31 0
 6-311+G(2d,p)
 ****
 33  35  36  37  38 0
 6-311+G(2d,p)
 ****
 1  2  13  14  15  16  17  18  19  20  21  22  24  25 0
 3-21G
 ****
 27  28  29  32  34  39  40  41  42  43  44  45  46  47  48  49 0
 3-21G
 ****


