%nproc=1
%NoSave
%Mem=1900MB
#P OB98/GEN NMR

erre ene a

0 1
  C      -49.921      -7.635      46.412
  O      -50.704      -8.766      46.089
  H      -49.610      -7.711      47.457
  H      -50.506      -6.721      46.284
  H      -49.031      -7.601      45.779
  P      -51.317      -8.825      44.607
  C      -53.644      -7.759      45.053
  O      -52.908      -8.942      44.773
  C      -55.028      -8.129      45.571
  O      -55.745      -6.934      45.957
  C      -55.914      -8.818      44.542
  O      -55.589     -10.187      44.384
  C      -57.288      -8.605      45.157
  O      -57.583      -9.603      46.147
  C      -57.152      -7.208      45.801
  N      -57.829      -6.176      45.024
  C      -58.935      -5.590      45.631
  O      -59.336      -5.908      46.752
  N      -59.595      -4.647      44.891
  C      -59.286      -4.271      43.617
  O      -59.963      -3.473      42.981
  C      -58.097      -4.912      43.030
  C      -57.439      -5.829      43.745
  O      -50.879     -10.276      44.092
  O      -50.860      -7.739      43.691
  H      -50.123     -10.197      43.481
  H      -56.816      -9.620      46.753
  H      -60.406      -4.220      45.310
  H      -57.820      -4.631      42.022
  H      -56.572      -6.329      43.327
  H      -57.586      -7.209      46.810
  H      -58.076      -8.662      44.406
  H      -55.870      -8.284      43.585
  H      -54.909      -8.760      46.463
  H      -53.751      -7.170      44.135
  H      -53.096      -7.164      45.790
  P      -55.807     -10.864      42.946
  C      -58.000     -12.289      43.202
  O      -56.584     -12.243      43.204
  O      -54.316     -11.318      42.589
  O      -56.447      -9.962      41.948
  H      -53.811     -11.612      43.367
  H      -58.325     -13.291      43.391
  H      -58.366     -11.970      42.249
  H      -58.379     -11.641      43.965

 6  7  8  9  10  11  12  13  14  15  16  27  31  32  33  34  35 0
 6-311+G(2d,p)
 ****
 36  37 0
 6-311+G(2d,p)
 ****
 1  2  3  4  5  17  18  19  20  21  22  23  24  25 0
 3-21G
 ****
 26  28  29  30  38  39  40  41  42  43  44  45 0
 3-21G
 ****


