%nproc=1
%NoSave
%Mem=1900MB
#P OB98/GEN NMR

erre ene a

0 1
  C     -944.316    -809.353    -106.075
  O     -944.315    -808.677    -104.829
  H     -943.318    -809.763    -106.259
  H     -944.559    -808.668    -106.892
  H     -945.038    -810.179    -106.053
  P     -945.629    -807.851    -104.410
  C     -945.594    -809.071    -102.129
  O     -946.350    -808.745    -103.290
  C     -946.466    -808.917    -100.877
  O     -947.610    -809.784    -100.967
  C     -945.734    -809.317     -99.593
  O     -944.831    -808.309     -99.193
  C     -946.919    -809.540     -98.667
  O     -947.429    -808.307     -98.150
  C     -947.938    -810.213     -99.613
  N     -947.946    -811.675     -99.517
  C     -949.118    -812.248     -99.043
  O     -950.084    -811.532     -98.740
  N     -949.185    -813.608     -98.907
  C     -948.153    -814.344     -99.223
  N     -948.268    -815.682     -99.063
  C     -946.897    -813.762     -99.732
  C     -946.846    -812.445     -99.860
  O     -946.526    -807.403    -105.529
  O     -945.038    -806.622    -103.573
  H     -947.433    -807.689     -98.887
  H     -944.851    -805.862    -104.161
  H     -946.056    -814.399    -100.000
  H     -945.956    -811.943    -100.229
  H     -948.958    -809.845     -99.415
  H     -946.644    -810.172     -97.813
  H     -945.222    -810.274     -99.731
  H     -946.813    -807.883    -100.818
  H     -949.136    -816.021     -98.691
  H     -944.734    -808.379    -102.080
  H     -947.569    -816.358     -99.374
  H     -945.205    -810.090    -102.183
  P     -943.861    -808.541     -97.943
  C     -941.761    -808.489     -99.451
  O     -942.540    -809.258     -98.544
  O     -944.476    -809.242     -96.777
  O     -943.319    -807.071     -97.601
  H     -944.020    -806.531     -97.151
  H     -940.921    -809.066     -99.777
  H     -941.416    -807.602     -98.962
  H     -942.359    -808.221    -100.296

 6  7  8  9  10  11  12  13  14  15  16  26  30  31  32  33  35 0
 6-311+G(2d,p)
 ****
 37  38 0
 6-311+G(2d,p)
 ****
 1  2  3  4  5  17  18  19  20  21  22  23  24  25 0
 3-21G
 ****
 27  28  29  34  36  39  40  41  42  43  44  45  46 0
 3-21G
 ****


