%nproc=1
%NoSave
%Mem=1900MB
#P OB98/GEN NMR

erre ene a

0 1
  C      173.180    -190.588    -118.516
  O      174.025    -191.058    -117.482
  H      172.232    -191.131    -118.470
  H      173.642    -190.767    -119.492
  H      172.982    -189.519    -118.384
  P      175.499    -190.421    -117.422
  C      176.475    -192.060    -119.186
  O      176.172    -190.710    -118.852
  C      177.721    -192.130    -120.060
  O      177.550    -191.342    -121.260
  C      178.994    -191.632    -119.384
  O      179.579    -192.651    -118.588
  C      179.848    -191.264    -120.590
  O      180.458    -192.439    -121.169
  C      178.806    -190.664    -121.550
  N      180.571    -186.185    -123.072
  C      181.041    -187.458    -123.321
  N      182.170    -187.556    -124.063
  N      180.468    -188.548    -122.873
  C      179.386    -188.296    -122.096
  C      178.824    -187.081    -121.775
  C      179.435    -185.891    -122.325
  O      179.018    -184.737    -122.211
  N      177.714    -187.241    -120.978
  C      177.633    -188.544    -120.792
  N      178.628    -189.228    -121.446
  O      176.290    -191.405    -116.436
  O      175.566    -189.009    -116.943
  H      180.929    -192.182    -121.982
  H      176.897    -190.876    -115.884
  H      181.032    -185.388    -123.470
  H      176.871    -189.046    -120.203
  H      179.049    -190.877    -122.597
  H      180.666    -190.595    -120.318
  H      182.801    -186.780    -124.180
  H      178.797    -190.727    -118.789
  H      182.553    -188.487    -124.180
  H      177.840    -193.173    -120.382
  H      175.623    -192.488    -119.727
  H      176.635    -192.628    -118.262
  P      180.317    -192.226    -117.228
  C      182.717    -192.465    -118.199
  O      181.747    -191.603    -117.615
  O      180.685    -193.634    -116.569
  O      179.487    -191.396    -116.300
  H      180.088    -193.816    -115.819
  H      183.611    -191.912    -118.400
  H      182.333    -192.867    -119.113
  H      182.937    -193.265    -117.523

 6  7  8  9  10  11  12  13  14  15  26  29  33  34 0
 6-311+G(2d,p)
 ****
 36  38  39  40  41 0
 6-311+G(2d,p)
 ****
 1  2  3  4  5  16  17  18  19  20  21  22  23  24  25 0
 3-21G
 ****
 27  28  30  31  32  35  37  42  43  44  45  46  47 0
 3-21G
 ****
 48  49 0
 3-21G
 ****


