%nproc=1
%NoSave
%Mem=1900MB
#P OB98/GEN NMR

erre ene a

0 1
  C     -237.980      12.477    -340.790
  O     -236.751      13.116    -341.056
  H     -238.216      11.820    -341.634
  H     -238.784      13.211    -340.688
  H     -237.908      11.871    -339.885
  P     -236.251      14.285    -340.070
  C     -236.412      16.000    -341.974
  O     -235.546      15.366    -341.040
  C     -235.634      16.894    -342.942
  O     -234.984      17.964    -342.204
  C     -234.547      16.153    -343.734
  O     -234.631      16.517    -345.114
  C     -233.249      16.662    -343.129
  O     -232.152      16.548    -344.032
  C     -233.649      18.089    -342.733
  N     -232.736      18.688    -341.763
  C     -231.876      19.677    -342.246
  O     -231.880      19.978    -343.443
  N     -230.996      20.276    -341.377
  C     -230.948      19.888    -340.141
  N     -230.053      20.510    -339.332
  C     -231.810      18.812    -339.599
  C     -232.678      18.268    -340.455
  O     -235.412      13.821    -338.930
  O     -237.595      15.029    -339.620
  H     -231.412      17.101    -343.696
  H     -237.424      15.540    -338.787
  H     -231.725      18.513    -338.566
  H     -233.353      17.477    -340.141
  H     -233.693      18.743    -343.618
  H     -233.010      16.081    -342.229
  H     -234.623      15.070    -343.660
  H     -236.351      17.384    -343.614
  H     -229.485      21.242    -339.742
  H     -237.154      16.588    -341.422
  H     -229.926      20.282    -338.354
  H     -236.928      15.217    -342.547
  P     -235.222      15.402    -346.105
  C     -233.286      15.007    -347.784
  O     -234.550      15.614    -347.550
  O     -236.739      15.865    -346.316
  O     -235.139      14.013    -345.564
  H     -237.334      15.336    -345.758
  H     -232.962      15.230    -348.779
  H     -233.372      13.947    -347.666
  H     -232.573      15.387    -347.083

 6  7  8  9  10  11  12  13  14  15  16  26  30  31  32  33  35 0
 6-311+G(2d,p)
 ****
 37  38 0
 6-311+G(2d,p)
 ****
 1  2  3  4  5  17  18  19  20  21  22  23  24  25 0
 3-21G
 ****
 27  28  29  34  36  39  40  41  42  43  44  45  46 0
 3-21G
 ****


