%nproc=1
%NoSave
%Mem=1900MB
#P OB98/GEN NMR

erre ene a

0 1
  C     1946.698    -236.873    -342.889
  O     1947.229    -237.139    -344.213
  P     1946.213    -237.599    -345.378
  C     1946.848    -236.083    -347.374
  O     1945.892    -236.325    -346.344
  C     1946.213    -235.215    -348.485
  O     1945.080    -235.932    -349.124
  C     1945.641    -233.865    -347.947
  O     1945.764    -232.853    -348.937
  C     1944.139    -234.207    -347.797
  O     1943.373    -232.995    -347.778
  C     1943.938    -235.110    -349.026
  N     1939.159    -235.977    -350.734
  C     1940.124    -235.132    -351.170
  N     1941.384    -234.984    -350.672
  C     1941.598    -235.831    -349.644
  C     1940.724    -236.779    -349.117
  C     1939.465    -236.841    -349.712
  N     1938.487    -237.699    -349.287
  N     1941.327    -237.464    -348.053
  C     1942.522    -236.904    -347.935
  N     1942.738    -235.903    -348.906
  O     1944.991    -238.327    -344.936
  O     1947.128    -238.523    -346.347
  H     1943.629    -232.480    -347.044
  H     1946.633    -239.321    -346.557
  H     1939.875    -234.484    -351.992
  H     1943.199    -237.194    -347.169
  H     1943.856    -234.520    -349.957
  H     1943.997    -234.768    -346.892
  H     1946.087    -233.541    -347.026
  H     1946.954    -235.040    -349.260
  H     1947.175    -237.036    -347.826
  H     1937.572    -237.629    -349.668
  H     1938.583    -238.238    -348.431
  H     1947.734    -235.596    -346.953
  P     1947.211    -232.154    -349.047
  C     1947.396    -232.178    -351.702
  O     1947.885    -232.666    -350.384
  O     1948.039    -232.316    -347.791
  O     1946.807    -230.626    -349.349
  H     1946.207    -230.496    -350.084
  H     1948.039    -232.592    -352.435
  H     1947.408    -231.120    -351.655
  H     1946.371    -232.603    -351.813
  H     1947.495    -236.581    -342.237
  H     1946.231    -237.757    -342.508
  H     1945.976    -236.085    -342.946

 3  4  5  6  7  8  9  10  11  12  22  25  29  30  31  32 0
 6-311+G(2d,p)
 ****
 33  36  37 0
 6-311+G(2d,p)
 ****
 1  2  13  14  15  16  17  18  19  20  21  23  24  26 0
 3-21G
 ****
 27  28  34  35  38  39  40  41  42  43  44  45  46  47  48 0
 3-21G
 ****


