%nproc=1
%NoSave
%Mem=1900MB
#P OB98/GEN NMR

erre ene a

0 1
  C     -667.742     314.435     551.288
  O     -666.425     313.890     551.303
  P     -666.249     312.385     551.828
  C     -663.904     312.151     550.680
  O     -664.669     312.126     551.880
  C     -662.406     312.135     551.000
  O     -661.998     313.415     551.557
  C     -662.003     311.098     552.041
  O     -661.999     309.794     551.492
  C     -660.646     311.628     552.456
  O     -659.636     311.251     551.502
  C     -660.860     313.154     552.410
  N     -661.033     313.760     553.727
  C     -659.998     314.615     554.139
  O     -659.001     314.838     553.460
  N     -660.160     315.186     555.371
  C     -661.204     314.976     556.222
  O     -661.302     315.532     557.312
  C     -662.230     314.023     555.758
  C     -662.102     313.473     554.549
  O     -666.742     311.556     550.552
  O     -666.990     312.113     553.093
  H     -666.511     311.980     549.704
  H     -658.796     311.621     551.827
  H     -659.438     315.823     555.680
  H     -663.061     313.816     556.423
  H     -662.841     312.762     554.182
  H     -660.003     313.640     551.921
  H     -660.327     311.246     553.441
  H     -662.691     311.131     552.893
  H     -661.859     311.978     550.072
  H     -664.134     313.049     550.103
  H     -664.179     311.287     550.068
  P     -662.663     308.628     552.378
  C     -663.353     307.025     550.423
  O     -662.512     307.270     551.529
  O     -664.214     308.994     552.251
  O     -662.148     308.574     553.772
  H     -664.488     309.220     551.348
  H     -662.885     306.262     549.791
  H     -663.495     307.931     549.824
  H     -664.327     306.649     550.769
  H     -667.709     315.438     550.917
  H     -668.139     314.435     552.282
  H     -668.367     313.841     550.654

 3  4  5  6  7  8  9  10  11  12  13  24  28  29  30  31  32 0
 6-311+G(2d,p)
 ****
 33  34 0
 6-311+G(2d,p)
 ****
 1  2  14  15  16  17  18  19  20  21  22  23  25  26  27 0
 3-21G
 ****
 35  36  37  38  39  40  41  42  43  44  45 0
 3-21G
 ****


