%nproc=1
%NoSave
%Mem=1900MB
#P OB98/GEN NMR

erre ene a

0 1
  C       -9.489     -41.031      35.603
  O       -9.526     -40.280      36.802
  H       -9.244     -42.067      35.847
  H       -8.720     -40.635      34.935
  H      -10.465     -41.003      35.112
  P       -9.896     -38.724      36.659
  C       -7.382     -38.224      36.294
  O       -8.702     -38.115      35.778
  C       -6.378     -37.597      35.329
  O       -6.403     -38.276      34.061
  C       -6.639     -36.129      35.018
  O       -6.140     -35.296      36.052
  C       -5.844     -35.966      33.731
  O       -4.445     -35.806      34.039
  C       -6.073     -37.314      33.023
  N       -7.168     -36.871      28.028
  C       -6.029     -36.652      28.720
  N       -5.823     -36.748      30.050
  C       -6.949     -37.114      30.683
  C       -8.185     -37.372      30.110
  C       -8.272     -37.248      28.714
  N       -9.434     -37.483      28.010
  N       -9.108     -37.720      31.074
  C       -8.427     -37.724      32.202
  N       -7.125     -37.329      32.024
  O      -10.210     -38.015      37.930
  O      -11.099     -38.793      35.603
  H       -3.954     -35.844      33.198
  H      -10.920     -39.469      34.926
  H       -5.168     -36.362      28.126
  H       -8.823     -38.020      33.166
  H       -5.165     -37.669      32.524
  H       -6.147     -35.084      33.164
  H       -7.697     -35.945      34.811
  H       -5.375     -37.736      35.752
  H       -7.126     -39.274      36.468
  H       -9.454     -37.206      27.041
  H      -10.282     -37.641      28.534
  H       -7.361     -37.699      37.254
  P       -6.962     -34.006      36.530
  C       -5.189     -32.304      35.778
  O       -6.508     -32.796      35.577
  O       -6.881     -33.711      37.987
  O       -8.464     -34.290      36.064
  H       -9.095     -33.965      36.734
  H       -4.998     -31.505      35.092
  H       -4.485     -33.093      35.612
  H       -5.092     -31.944      36.781

 6  7  8  9  10  11  12  13  14  15  25  28  32  33  34  35 0
 6-311+G(2d,p)
 ****
 36  39  40 0
 6-311+G(2d,p)
 ****
 1  2  3  4  5  16  17  18  19  20  21  22  23  24 0
 3-21G
 ****
 26  27  29  30  31  37  38  41  42  43  44  45  46  47 0
 3-21G
 ****
 48 0
 3-21G
 ****


