%nproc=1
%NoSave
%Mem=1900MB
#P OB98/GEN NMR

erre ene a

0 1
  C      682.737    -891.560     577.250
  O      682.883    -892.750     578.000
  P      683.756    -892.690     579.362
  C      682.122    -894.340     580.549
  O      682.720    -893.070     580.552
  C      682.936    -895.320     581.406
  O      683.070    -894.810     582.757
  C      682.347    -896.700     581.517
  O      682.664    -897.490     580.387
  C      682.983    -897.220     582.793
  O      684.330    -897.690     582.552
  C      683.012    -895.940     583.661
  N      681.516    -894.520     588.284
  C      682.808    -894.680     587.781
  N      683.836    -894.390     588.607
  N      683.049    -895.100     586.543
  C      681.916    -895.380     585.869
  C      680.591    -895.290     586.266
  C      680.336    -894.760     587.576
  O      679.242    -894.510     588.048
  N      679.732    -895.640     585.252
  C      680.533    -895.980     584.269
  N      681.872    -895.810     584.549
  O      683.969    -891.100     579.549
  O      685.022    -893.440     579.356
  H      684.811    -897.040     582.039
  H      684.856    -890.850     579.227
  H      681.377    -894.180     589.219
  H      680.207    -896.330     583.288
  H      683.910    -895.890     584.295
  H      682.438    -898.060     583.245
  H      683.704    -894.080     589.559
  H      681.253    -896.640     581.666
  H      684.756    -894.490     588.229
  H      683.948    -895.360     580.982
  H      682.066    -894.720     579.517
  H      681.108    -894.260     580.939
  P      681.538    -898.480     579.806
  C      680.674    -896.830     577.973
  O      680.385    -897.580     579.146
  O      680.853    -899.060     581.139
  O      682.054    -899.570     578.923
  H      680.603    -900.000     580.979
  H      679.744    -896.720     577.404
  H      681.446    -897.330     577.370
  H      681.031    -895.840     578.258
  H      682.139    -891.755     576.384
  H      683.701    -891.209     576.946
  H      682.260    -890.815     577.852

 3  4  5  6  7  8  9  10  11  12  23  26  30  31 0
 6-311+G(2d,p)
 ****
 33  35  36  37  38 0
 6-311+G(2d,p)
 ****
 1  2  13  14  15  16  17  18  19  20  21  22  24  25 0
 3-21G
 ****
 27  28  29  32  34  39  40  41  42  43  44  45  46  47  48  49 0
 3-21G
 ****


