%nproc=1
%NoSave
%Mem=1900MB
#P OB98/GEN NMR

erre ene a

0 1
  C      117.351    -223.338     -92.659
  O      116.621    -223.827     -93.765
  H      116.747    -223.467     -91.759
  H      117.568    -222.273     -92.784
  H      118.283    -223.899     -92.540
  P      117.258    -223.695     -95.230
  C      117.920    -226.190     -95.350
  O      117.141    -225.143     -95.918
  C      117.593    -227.525     -96.033
  O      116.297    -227.962     -95.550
  C      117.523    -227.398     -97.564
  O      118.345    -228.349     -98.238
  C      116.024    -227.421     -97.844
  O      115.680    -227.887     -99.133
  C      115.465    -228.254     -96.688
  N      114.061    -227.976     -96.384
  C      113.100    -228.780     -96.994
  O      113.343    -229.709     -97.760
  N      111.799    -228.477     -96.691
  C      111.371    -227.473     -95.868
  O      110.191    -227.256     -95.632
  C      112.431    -226.642     -95.276
  C      113.706    -226.926     -95.555
  O      118.620    -223.087     -95.289
  O      116.189    -222.824     -96.043
  H      115.888    -228.845     -99.158
  H      116.529    -221.916     -96.158
  H      111.093    -229.061     -97.115
  H      112.127    -225.830     -94.629
  H      114.513    -226.334     -95.133
  H      115.549    -229.320     -96.908
  H      115.640    -226.396     -97.761
  H      117.932    -226.435     -97.893
  H      118.333    -228.270     -95.722
  H      117.682    -226.242     -94.281
  H      118.985    -225.964     -95.468
  P      119.797    -228.052     -98.827
  C      121.708    -228.860     -97.209
  O      120.811    -229.156     -98.271
  O      120.249    -226.630     -98.763
  O      119.662    -228.446    -100.388
  H      120.264    -227.846    -100.877
  H      122.296    -229.726     -96.987
  H      121.151    -228.575     -96.341
  H      122.352    -228.056     -97.499

 6  7  8  9  10  11  12  13  14  15  16  26  31  32  33  34  35 0
 6-311+G(2d,p)
 ****
 36  37 0
 6-311+G(2d,p)
 ****
 1  2  3  4  5  17  18  19  20  21  22  23  24  25 0
 3-21G
 ****
 27  28  29  30  38  39  40  41  42  43  44  45 0
 3-21G
 ****


