%nproc=1
%NoSave
%Mem=1900MB
#P OB98/GEN NMR

erre ene a

0 1
  C      879.513     893.697    2098.584
  O      879.279     894.526    2099.700
  H      878.729     893.884    2097.841
  H      879.464     892.643    2098.865
  H      880.481     893.913    2098.133
  P      880.264     894.397    2100.975
  C      880.135     896.908    2101.610
  O      880.961     895.819    2101.166
  C      880.827     898.235    2101.357
  O      882.051     898.269    2102.149
  C      881.218     898.453    2099.865
  O      880.716     899.679    2099.332
  C      882.707     898.190    2099.870
  O      883.405     898.842    2098.795
  C      883.160     898.629    2101.269
  N      884.381     897.981    2101.729
  C      885.583     898.390    2101.135
  O      885.672     899.276    2100.250
  N      886.699     897.771    2101.583
  C      886.784     896.759    2102.539
  O      887.796     896.252    2102.879
  C      885.476     896.363    2103.092
  C      884.339     896.974    2102.685
  O      881.212     893.234    2100.925
  O      879.268     894.301    2102.224
  H      884.339     898.619    2098.904
  H      879.237     893.377    2102.538
  H      887.550     898.087    2101.184
  H      885.467     895.591    2103.849
  H      883.383     896.682    2103.099
  H      883.283     899.697    2101.332
  H      882.880     897.107    2099.744
  H      880.732     897.690    2099.238
  H      880.161     899.051    2101.714
  H      879.953     896.763    2102.686
  H      879.188     896.863    2101.075
  P      880.165     899.881    2097.834
  C      877.621     899.692    2098.531
  O      878.711     899.215    2097.760
  O      881.121     899.594    2096.720
  O      879.831     901.473    2097.813
  H      879.980     901.745    2096.881
  H      876.753     899.102    2098.324
  H      877.426     900.714    2098.280
  H      877.861     899.620    2099.571

 6  7  8  9  10  11  12  13  14  15  16  26  31  32  33  34  35 0
 6-311+G(2d,p)
 ****
 36  37 0
 6-311+G(2d,p)
 ****
 1  2  3  4  5  17  18  19  20  21  22  23  24  25 0
 3-21G
 ****
 27  28  29  30  38  39  40  41  42  43  44  45 0
 3-21G
 ****


