%nproc=1
%NoSave
%Mem=1900MB
#P OB98/GEN NMR

erre ene a

0 1
  C      -31.300      51.366     317.154
  O      -32.284      52.331     317.477
  H      -30.614      51.266     318.000
  H      -30.724      51.674     316.277
  H      -31.768      50.397     316.965
  P      -33.318      52.770     316.335
  C      -35.881      53.122     316.343
  O      -34.771      52.445     316.922
  C      -37.157      52.315     316.555
  O      -37.151      51.141     315.719
  C      -37.315      51.809     317.982
  O      -37.723      52.850     318.845
  C      -38.322      50.693     317.779
  O      -39.655      51.208     317.675
  C      -37.854      50.096     316.432
  N      -37.010      48.918     316.600
  C      -37.413      47.771     315.906
  O      -38.419      47.791     315.201
  N      -36.671      46.626     316.052
  C      -35.616      46.626     316.805
  N      -34.926      45.460     316.906
  C      -35.150      47.817     317.541
  C      -35.890      48.915     317.398
  O      -33.074      52.230     314.959
  O      -33.262      54.369     316.371
  H      -39.676      51.729     316.849
  H      -32.572      54.701     315.766
  H      -34.261      47.774     318.152
  H      -35.615      49.835     317.902
  H      -38.716      49.816     315.814
  H      -38.304      49.983     318.604
  H      -36.378      51.361     318.329
  H      -38.012      52.935     316.259
  H      -35.288      44.665     316.391
  H      -35.673      53.226     315.272
  H      -34.046      45.366     317.389
  H      -35.990      54.123     316.773
  P      -37.635      52.671     320.437
  C      -36.637      54.053     322.372
  O      -36.783      53.928     320.961
  O      -37.162      51.336     320.904
  O      -39.121      53.024     320.922
  H      -39.751      52.292     320.713
  H      -36.054      54.922     322.595
  H      -36.145      53.185     322.758
  H      -37.603      54.146     322.824

 6  7  8  9  10  11  12  13  14  15  16  26  30  31  32  33  35 0
 6-311+G(2d,p)
 ****
 37  38 0
 6-311+G(2d,p)
 ****
 1  2  3  4  5  17  18  19  20  21  22  23  24  25 0
 3-21G
 ****
 27  28  29  34  36  39  40  41  42  43  44  45  46 0
 3-21G
 ****


