%nproc=1
%NoSave
%Mem=1900MB
#P OB98/GEN NMR

erre ene a

0 1
  C      372.777    -179.159     117.972
  O      373.320    -177.861     118.083
  H      373.332    -179.828     118.632
  H      372.875    -179.513     116.945
  H      371.725    -179.170     118.273
  P      372.520    -176.624     117.451
  C      370.347    -175.357     118.024
  O      371.311    -176.306     118.462
  C      369.640    -174.707     119.219
  O      368.893    -175.736     119.935
  C      370.590    -174.045     120.224
  O      369.890    -172.942     120.818
  C      370.781    -175.153     121.242
  O      371.292    -174.660     122.465
  C      369.369    -175.744     121.295
  N      369.343    -177.082     121.887
  C      368.974    -177.162     123.225
  O      368.719    -176.175     123.915
  N      368.960    -178.413     123.763
  C      369.328    -179.569     123.132
  O      369.326    -180.662     123.678
  C      369.747    -179.421     121.724
  C      369.733    -178.198     121.176
  O      372.117    -176.775     116.022
  O      373.491    -175.371     117.668
  H      372.211    -174.339     122.347
  H      373.359    -174.717     116.954
  H      368.690    -178.495     124.738
  H      370.055    -180.306     121.195
  H      370.032    -178.053     120.143
  H      368.703    -175.104     121.885
  H      371.494    -175.899     120.874
  H      371.526    -173.707     119.779
  H      368.903    -173.989     118.840
  H      369.622    -175.873     117.394
  H      370.846    -174.581     117.422
  P      370.331    -171.418     120.571
  C      369.203    -169.316     119.591
  O      369.294    -170.742     119.547
  O      371.763    -171.254     120.189
  O      370.026    -170.674     121.956
  H      370.631    -169.916     122.063
  H      368.486    -168.982     118.870
  H      370.159    -168.891     119.367
  H      368.896    -169.008     120.569

 6  7  8  9  10  11  12  13  14  15  16  26  31  32  33  34  35 0
 6-311+G(2d,p)
 ****
 36  37 0
 6-311+G(2d,p)
 ****
 1  2  3  4  5  17  18  19  20  21  22  23  24  25 0
 3-21G
 ****
 27  28  29  30  38  39  40  41  42  43  44  45 0
 3-21G
 ****


