%nproc=1
%NoSave
%Mem=1900MB
#P OB98/GEN NMR

erre ene a

0 1
  C      765.075     634.058     183.816
  O      765.819     635.163     184.289
  P      766.877     635.829     183.286
  C      768.055     637.238     185.156
  O      768.169     636.220     184.163
  C      769.318     637.278     186.011
  O      769.270     636.235     186.999
  C      770.617     637.072     185.254
  O      770.990     638.241     184.522
  C      771.559     636.713     186.393
  O      771.967     637.889     187.090
  C      770.652     635.862     187.296
  N      772.119     631.410     189.385
  C      772.113     632.668     189.862
  N      771.724     633.811     189.252
  C      771.309     633.526     187.994
  C      771.297     632.308     187.357
  C      771.699     631.204     188.108
  N      771.716     629.901     187.620
  N      770.808     632.419     186.075
  C      770.547     633.707     185.920
  N      770.825     634.427     187.064
  O      766.212     637.271     182.967
  O      767.155     635.059     182.028
  H      771.148     638.313     187.426
  H      766.402     637.550     182.047
  H      772.451     632.795     190.910
  H      770.152     634.177     185.030
  H      770.821     636.035     188.363
  H      772.463     636.194     186.051
  H      770.516     636.202     184.557
  H      769.330     638.247     186.549
  H      767.188     637.024     185.783
  H      772.181     629.208     188.167
  H      771.523     629.775     186.628
  H      767.881     638.189     184.651
  P      772.105     638.084     183.380
  C      772.331     640.615     183.786
  O      773.017     639.387     183.565
  O      771.270     638.425     182.054
  O      772.827     636.765     183.380
  H      770.741     639.239     182.156
  H      773.065     641.419     183.952
  H      771.691     640.540     184.684
  H      771.730     640.871     182.921
  H      764.413     633.718     184.585
  H      765.743     633.267     183.545
  H      764.505     634.352     182.959

 3  4  5  6  7  8  9  10  11  12  22  25  29  30  31  32 0
 6-311+G(2d,p)
 ****
 33  36  37 0
 6-311+G(2d,p)
 ****
 1  2  13  14  15  16  17  18  19  20  21  23  24  26 0
 3-21G
 ****
 27  28  34  35  38  39  40  41  42  43  44  45  46  47  48 0
 3-21G
 ****


