%nproc=1
%NoSave
%Mem=1900MB
#P OB98/GEN NMR

erre ene a

0 1
  C      -57.738    -188.907     233.303
  O      -57.209    -190.196     233.598
  P      -58.165    -191.232     234.365
  C      -57.764    -191.481     236.923
  O      -58.284    -190.675     235.871
  C      -56.317    -191.105     237.224
  O      -56.191    -189.672     237.323
  C      -55.778    -191.657     238.539
  O      -55.344    -193.004     238.414
  C      -54.588    -190.738     238.769
  O      -53.478    -191.153     237.956
  C      -55.126    -189.388     238.274
  N      -54.771    -184.838     240.586
  C      -54.054    -185.397     239.583
  N      -54.200    -186.625     239.031
  C      -55.192    -187.302     239.640
  C      -55.976    -186.874     240.698
  C      -55.746    -185.570     241.172
  N      -56.495    -184.993     242.169
  N      -56.880    -187.846     241.060
  C      -56.653    -188.844     240.229
  N      -55.647    -188.559     239.344
  O      -57.240    -192.529     234.520
  O      -59.453    -191.533     233.677
  H      -53.198    -192.033     238.284
  H      -57.798    -193.321     234.631
  H      -53.258    -184.781     239.166
  H      -57.197    -189.783     240.220
  H      -54.362    -188.804     237.748
  H      -54.240    -190.746     239.808
  H      -56.507    -191.533     239.348
  H      -55.695    -191.438     236.383
  H      -57.799    -192.535     236.618
  H      -56.391    -183.995     242.324
  H      -57.348    -185.462     242.461
  H      -58.385    -191.354     237.812
  P      -55.304    -193.875     239.763
  C      -52.890    -194.661     240.337
  O      -53.857    -193.625     240.391
  O      -55.237    -195.380     239.221
  O      -56.471    -193.649     240.669
  H      -55.603    -195.997     239.882
  H      -51.907    -194.238     240.514
  H      -52.890    -195.151     239.353
  H      -53.101    -195.404     241.118
  H      -56.998    -188.326     232.794
  H      -58.012    -188.417     234.214
  H      -58.601    -189.010     232.679

 3  4  5  6  7  8  9  10  11  12  22  25  29  30  31  32 0
 6-311+G(2d,p)
 ****
 33  36  37 0
 6-311+G(2d,p)
 ****
 1  2  13  14  15  16  17  18  19  20  21  23  24  26 0
 3-21G
 ****
 27  28  34  35  38  39  40  41  42  43  44  45  46  47  48 0
 3-21G
 ****


