%nproc=1
%NoSave
%Mem=1900MB
#P OB98/GEN NMR

erre ene a

0 1
  C     -377.025     108.164    -393.745
  O     -376.585     107.279    -394.781
  P     -376.653     105.704    -394.494
  C     -378.339     105.149    -396.392
  O     -377.043     104.944    -395.858
  C     -378.639     104.164    -397.530
  O     -377.735     104.379    -398.650
  C     -378.500     102.695    -397.124
  O     -379.412     101.923    -397.906
  C     -377.083     102.362    -397.562
  O     -376.880     100.953    -397.676
  C     -377.012     103.150    -398.870
  N     -372.799     101.070    -400.704
  C     -374.006     100.486    -400.370
  N     -374.115      99.161    -400.589
  N     -375.013     101.149    -399.869
  C     -374.766     102.475    -399.738
  C     -373.614     103.169    -400.025
  C     -372.497     102.417    -400.561
  O     -371.399     102.881    -400.861
  N     -373.746     104.507    -399.729
  C     -374.975     104.614    -399.262
  N     -375.648     103.422    -399.278
  O     -377.977     105.561    -393.605
  O     -375.457     105.164    -393.780
  H     -377.309     100.660    -398.508
  H     -377.734     105.359    -392.686
  H     -372.049     100.509    -401.080
  H     -375.424     105.524    -398.893
  H     -377.493     102.615    -399.701
  H     -376.365     102.756    -396.829
  H     -373.395      98.602    -401.025
  H     -378.671     102.492    -396.061
  H     -375.004      98.715    -400.393
  H     -379.656     104.351    -397.896
  H     -378.436     106.172    -396.763
  H     -379.072     105.056    -395.583
  P     -380.304     100.839    -397.125
  C     -382.210     100.854    -398.897
  O     -381.199     100.112    -398.240
  O     -381.368     101.737    -396.326
  O     -379.542      99.933    -396.218
  H     -381.689     101.260    -395.541
  H     -381.863     101.114    -399.897
  H     -382.469     101.768    -398.348
  H     -383.103     100.230    -398.985
  H     -376.923     109.177    -394.074
  H     -376.429     108.012    -392.869
  H     -378.051     107.964    -393.517

 3  4  5  6  7  8  9  10  11  12  23  26  30  31 0
 6-311+G(2d,p)
 ****
 33  35  36  37  38 0
 6-311+G(2d,p)
 ****
 1  2  13  14  15  16  17  18  19  20  21  22  24  25 0
 3-21G
 ****
 27  28  29  32  34  39  40  41  42  43  44  45  46  47  48  49 0
 3-21G
 ****


