%nproc=1
%NoSave
%Mem=1900MB
#P OB98/GEN NMR

erre ene a

0 1
  C      -51.327     -44.958    -178.461
  O      -51.995     -45.489    -177.319
  P      -53.584     -45.687    -177.385
  C      -55.694     -44.103    -177.174
  O      -54.309     -44.265    -177.391
  C      -56.028     -42.601    -177.129
  O      -55.590     -42.028    -175.877
  C      -55.360     -41.801    -178.245
  O      -56.129     -41.802    -179.433
  C      -55.224     -40.430    -177.609
  O      -56.486     -39.739    -177.638
  C      -54.846     -40.806    -176.156
  N      -53.421     -41.041    -175.846
  C      -52.520     -39.978    -175.884
  O      -52.824     -38.823    -176.167
  N      -51.221     -40.278    -175.566
  C      -50.765     -41.462    -175.058
  O      -49.601     -41.657    -174.735
  C      -51.785     -42.506    -174.897
  C      -53.033     -42.258    -175.299
  O      -53.951     -46.298    -175.955
  O      -54.050     -46.566    -178.506
  H      -56.947     -39.943    -176.805
  H      -54.298     -47.205    -176.051
  H      -50.540     -39.538    -175.657
  H      -51.479     -43.446    -174.454
  H      -53.795     -43.026    -175.185
  H      -55.201     -40.040    -175.456
  H      -54.524     -39.808    -178.162
  H      -54.351     -42.185    -178.432
  H      -57.117     -42.486    -177.191
  H      -56.002     -44.581    -176.241
  H      -56.251     -44.591    -177.980
  P      -55.523     -42.431    -180.775
  C      -53.917     -41.622    -182.606
  O      -54.624     -41.273    -181.429
  O      -56.502     -43.085    -181.692
  O      -54.418     -43.466    -180.239
  H      -54.788     -44.377    -180.193
  H      -53.480     -40.714    -183.032
  H      -54.592     -42.071    -183.339
  H      -53.113     -42.322    -182.361
  H      -50.278     -44.888    -178.260
  H      -51.714     -43.985    -178.680
  H      -51.487     -45.603    -179.300

 3  4  5  6  7  8  9  10  11  12  13  23  28  29  30  31  32 0
 6-311+G(2d,p)
 ****
 33  34 0
 6-311+G(2d,p)
 ****
 1  2  14  15  16  17  18  19  20  21  22  24  25  26  27 0
 3-21G
 ****
 35  36  37  38  39  40  41  42  43  44  45 0
 3-21G
 ****


