%nproc=1
%NoSave
%Mem=1900MB
#P OB98/GEN NMR

erre ene a

0 1
  C     -899.350    -176.062    -899.176
  O     -900.000    -176.407    -897.956
  P     -899.320    -175.873    -896.596
  C     -896.910    -175.790    -895.646
  O     -897.730    -176.043    -896.766
  C     -895.540    -176.412    -895.846
  O     -894.970    -176.007    -897.136
  C     -894.490    -176.005    -894.816
  O     -894.690    -176.674    -893.586
  C     -893.190    -176.387    -895.556
  O     -892.990    -177.793    -895.456
  C     -893.540    -175.998    -896.996
  N     -889.720    -173.473    -899.286
  C     -889.890    -174.783    -899.056
  N     -890.940    -175.376    -898.416
  C     -891.820    -174.466    -898.016
  C     -891.770    -173.084    -898.166
  C     -890.640    -172.601    -898.826
  N     -890.430    -171.229    -899.076
  N     -892.860    -172.458    -897.586
  C     -893.590    -173.437    -897.136
  N     -893.040    -174.673    -897.376
  O     -899.730    -177.015    -895.526
  O     -899.780    -174.500    -896.166
  H     -892.890    -178.015    -894.506
  H     -899.860    -176.604    -894.646
  H     -889.130    -175.454    -899.406
  H     -894.530    -173.328    -896.606
  H     -893.140    -176.718    -897.736
  H     -892.320    -175.875    -895.156
  H     -894.510    -174.910    -894.636
  H     -895.650    -177.516    -895.866
  H     -897.360    -176.212    -894.746
  H     -889.530    -170.975    -899.436
  H     -891.060    -170.586    -898.606
  H     -896.830    -174.703    -895.496
  P     -894.230    -175.933    -892.246
  C     -891.950    -175.647    -891.086
  O     -892.620    -176.081    -892.256
  O     -894.670    -176.990    -891.106
  O     -894.750    -174.544    -892.076
  H     -894.370    -177.888    -891.336
  H     -890.870    -175.853    -891.206
  H     -892.330    -176.200    -890.206
  H     -892.080    -174.566    -890.936
  H     -899.896    -176.473    -900.000
  H     -898.356    -176.457    -899.175
  H     -899.311    -174.997    -899.271

 3  4  5  6  7  8  9  10  11  12  22  25  29  30  31  32 0
 6-311+G(2d,p)
 ****
 33  36  37 0
 6-311+G(2d,p)
 ****
 1  2  13  14  15  16  17  18  19  20  21  23  24  26 0
 3-21G
 ****
 27  28  34  35  38  39  40  41  42  43  44  45  46  47  48 0
 3-21G
 ****


