%nproc=1
%NoSave
%Mem=1900MB
#P OB98/GEN NMR

erre ene a

0 1
  C     -332.768     165.758     931.788
  O     -333.994     165.865     932.488
  H     -332.807     164.886     931.138
  H     -331.949     165.620     932.510
  H     -332.584     166.647     931.180
  P     -334.278     167.238     933.267
  C     -333.366     166.503     935.590
  O     -333.190     167.341     934.446
  C     -332.300     166.809     936.638
  O     -332.409     168.213     937.024
  C     -332.435     165.967     937.916
  O     -331.127     165.624     938.389
  C     -333.105     166.920     938.905
  O     -332.821     166.579     940.268
  C     -332.527     168.253     938.456
  N     -332.924     172.109     941.707
  C     -331.881     171.219     941.479
  N     -330.774     171.384     942.243
  N     -331.909     170.271     940.583
  C     -333.072     170.252     939.882
  C     -334.169     171.052     939.994
  C     -334.129     172.090     941.014
  O     -335.039     172.882     941.275
  N     -335.166     170.681     939.114
  C     -334.650     169.660     938.447
  N     -333.368     169.360     938.871
  O     -335.644     166.941     934.040
  O     -334.392     168.451     932.402
  H     -333.463     167.069     940.826
  H     -336.352     167.527     933.695
  H     -332.844     172.821     942.415
  H     -335.154     169.111     937.677
  H     -331.531     168.447     938.879
  H     -334.190     166.892     938.763
  H     -330.646     172.131     942.912
  H     -333.019     165.053     937.772
  H     -329.981     170.779     942.068
  H     -331.306     166.678     936.190
  H     -333.276     165.456     935.270
  H     -334.364     166.669     936.008
  P     -330.835     164.071     938.658
  C     -331.719     163.534     941.036
  O     -331.973     163.501     939.640
  O     -329.520     164.092     939.577
  O     -330.604     163.265     937.400
  H     -328.745     163.787     939.058
  H     -332.557     163.126     941.561
  H     -331.562     164.546     941.346
  H     -330.846     162.955     941.253

 6  7  8  9  10  11  12  13  14  15  26  29  33  34 0
 6-311+G(2d,p)
 ****
 36  38  39  40  41 0
 6-311+G(2d,p)
 ****
 1  2  3  4  5  16  17  18  19  20  21  22  23  24  25 0
 3-21G
 ****
 27  28  30  31  32  35  37  42  43  44  45  46  47 0
 3-21G
 ****
 48  49 0
 3-21G
 ****


