%nproc=1
%NoSave
%Mem=1900MB
#P OB98/GEN NMR

erre ene a

0 1
  C      698.490     291.136      78.153
  O      699.677     291.866      78.426
  P      701.050     291.308      77.824
  C      702.150     292.076      80.048
  O      702.238     292.030      78.633
  C      703.537     292.261      80.674
  O      704.363     291.109      80.328
  C      704.286     293.520      80.215
  O      705.044     293.976      81.337
  C      705.194     292.969      79.129
  O      706.267     293.822      78.789
  C      705.570     291.627      79.746
  N      709.824     289.323      78.046
  C      709.599     290.152      79.095
  N      708.439     290.726      79.489
  C      707.435     290.348      78.672
  C      707.509     289.542      77.564
  C      708.776     289.006      77.247
  N      708.997     288.176      76.182
  N      706.263     289.402      76.965
  C      705.465     290.129      77.713
  N      706.112     290.710      78.771
  O      701.127     291.989      76.382
  O      701.150     289.810      77.751
  H      706.697     293.536      77.967
  H      701.484     291.370      75.722
  H      710.484     290.396      79.692
  H      704.412     290.275      77.521
  H      706.317     291.735      80.544
  H      704.600     292.822      78.216
  H      703.617     294.323      79.881
  H      703.425     292.255      81.773
  H      701.727     291.132      80.417
  H      709.964     288.019      75.915
  H      708.255     288.103      75.479
  H      701.480     292.883      80.355
  P      704.712     295.408      81.983
  C      707.037     296.248      81.287
  O      706.150     296.006      82.363
  O      704.149     294.978      83.416
  O      703.794     296.270      81.183
  H      704.757     294.367      83.877
  H      707.939     296.751      81.664
  H      706.561     296.907      80.538
  H      707.334     295.308      80.821
  H      697.657     291.623      78.616
  H      698.584     290.144      78.542
  H      698.334     291.091      77.095

 3  4  5  6  7  8  9  10  11  12  22  25  29  30  31  32 0
 6-311+G(2d,p)
 ****
 33  36  37 0
 6-311+G(2d,p)
 ****
 1  2  13  14  15  16  17  18  19  20  21  23  24  26 0
 3-21G
 ****
 27  28  34  35  38  39  40  41  42  43  44  45  46  47  48 0
 3-21G
 ****


