%nproc=1
%NoSave
%Mem=1900MB
#P OB98/GEN NMR

erre ene a

0 1
  C       71.143     208.160    -272.148
  O       71.503     206.844    -272.523
  H       71.566     208.860    -272.874
  H       71.547     208.390    -271.156
  H       70.053     208.273    -272.145
  P       70.829     205.646    -271.694
  C       71.222     204.692    -269.277
  O       71.600     205.612    -270.285
  C       72.131     204.821    -268.053
  O       73.468     204.388    -268.424
  C       72.240     206.249    -267.515
  O       72.352     206.186    -266.085
  C       73.547     206.757    -268.099
  O       74.103     207.826    -267.342
  C       74.383     205.464    -268.112
  N       75.490     205.526    -269.071
  C       76.664     204.859    -268.721
  O       76.738     204.252    -267.643
  N       77.736     204.899    -269.577
  C       77.665     205.612    -270.656
  N       78.772     205.647    -271.448
  C       76.463     206.381    -271.041
  C       75.416     206.281    -270.222
  O       71.390     204.359    -272.461
  O       69.343     205.716    -271.604
  H       74.281     207.509    -266.431
  H       72.339     204.413    -272.672
  H       76.451     206.971    -271.953
  H       74.491     206.804    -270.429
  H       74.803     205.266    -267.117
  H       73.389     207.116    -269.125
  H       71.382     206.875    -267.793
  H       71.781     204.133    -267.278
  H       79.586     205.121    -271.133
  H       71.270     203.664    -269.659
  H       78.856     206.209    -272.283
  H       70.181     204.903    -268.999
  P       71.379     207.076    -265.180
  C       71.121     209.545    -264.434
  O       71.880     208.597    -265.182
  O       71.060     206.511    -263.831
  O       70.040     207.155    -266.078
  H       69.275     207.055    -265.475
  H       71.569     210.512    -264.526
  H       71.105     209.256    -263.404
  H       70.120     209.578    -264.811

 6  7  8  9  10  11  12  13  14  15  16  26  30  31  32  33  35 0
 6-311+G(2d,p)
 ****
 37  38 0
 6-311+G(2d,p)
 ****
 1  2  3  4  5  17  18  19  20  21  22  23  24  25 0
 3-21G
 ****
 27  28  29  34  36  39  40  41  42  43  44  45  46 0
 3-21G
 ****


