%nproc=1
%NoSave
%Mem=1900MB
#P OB98/GEN NMR

erre ene a

0 1
  C     -277.736    -456.892     536.301
  O     -276.553    -456.082     536.253
  P     -276.417    -454.781     535.324
  C     -274.743    -453.485     536.803
  O     -274.970    -454.117     535.549
  C     -274.081    -454.438     537.810
  O     -272.957    -455.128     537.176
  C     -273.542    -453.750     539.079
  O     -273.805    -454.643     540.171
  C     -272.053    -453.661     538.778
  O     -271.252    -453.450     539.926
  C     -271.842    -455.008     538.089
  N     -270.582    -455.158     537.371
  C     -269.394    -454.985     538.103
  O     -269.411    -454.669     539.288
  N     -268.197    -455.163     537.451
  C     -268.168    -455.472     536.192
  N     -266.949    -455.641     535.623
  C     -269.390    -455.639     535.386
  C     -270.543    -455.473     536.033
  O     -277.542    -453.808     535.481
  O     -276.353    -455.329     533.822
  H     -276.810    -454.701     533.229
  H     -270.326    -453.365     539.636
  H     -269.326    -455.910     534.345
  H     -271.489    -455.607     535.508
  H     -271.943    -455.815     538.825
  H     -271.885    -452.813     538.097
  H     -274.016    -452.785     539.288
  H     -274.812    -455.212     538.077
  H     -266.139    -455.525     536.212
  H     -275.710    -453.168     537.212
  H     -266.816    -455.894     534.654
  H     -274.127    -452.599     536.656
  P     -275.259    -454.662     540.838
  C     -275.280    -457.221     541.326
  O     -275.310    -455.907     541.850
  O     -276.178    -455.181     539.633
  O     -275.772    -453.357     541.352
  H     -277.089    -454.865     539.765
  H     -274.582    -457.819     541.925
  H     -274.957    -457.250     540.286
  H     -276.278    -457.657     541.403
  H     -277.588    -457.698     536.989
  H     -277.938    -457.286     535.327
  H     -278.564    -456.295     536.623

 3  4  5  6  7  8  9  10  11  12  13  24  27  28  29  30  32 0
 6-311+G(2d,p)
 ****
 34  35 0
 6-311+G(2d,p)
 ****
 1  2  14  15  16  17  18  19  20  21  22  23  25  26 0
 3-21G
 ****
 31  33  36  37  38  39  40  41  42  43  44  45  46 0
 3-21G
 ****


