%nproc=1
%NoSave
%Mem=1900MB
#P OB98/GEN NMR

erre ene a

0 1
  C     -267.230    -147.467    -217.306
  O     -268.368    -146.963    -218.033
  P     -269.831    -147.609    -217.950
  C     -269.908    -148.614    -220.337
  O     -269.875    -148.877    -218.939
  C     -270.135    -149.903    -221.139
  O     -271.205    -150.682    -220.537
  C     -270.588    -149.708    -222.578
  O     -269.536    -149.260    -223.420
  C     -271.101    -151.098    -222.916
  O     -270.032    -151.974    -223.327
  C     -271.674    -151.580    -221.564
  N     -273.126    -151.639    -221.562
  C     -273.701    -152.835    -222.059
  O     -272.981    -153.708    -222.546
  N     -275.072    -152.970    -222.006
  C     -275.805    -151.979    -221.591
  N     -277.150    -152.181    -221.546
  C     -275.245    -150.672    -221.183
  C     -273.921    -150.581    -221.198
  O     -270.946    -146.634    -218.170
  O     -269.924    -148.252    -216.478
  H     -270.857    -148.300    -216.199
  H     -270.421    -152.856    -223.462
  H     -275.907    -149.860    -220.899
  H     -273.424    -149.656    -220.912
  H     -271.266    -152.560    -221.312
  H     -271.832    -151.082    -223.735
  H     -271.413    -148.991    -222.606
  H     -269.199    -150.495    -221.096
  H     -277.502    -153.094    -221.810
  H     -268.945    -148.180    -220.625
  H     -277.807    -151.486    -221.207
  H     -270.702    -147.876    -220.546
  P     -269.674    -147.775    -224.023
  C     -270.875    -148.627    -226.186
  O     -270.938    -147.797    -225.031
  O     -268.412    -147.657    -225.013
  O     -269.689    -146.681    -223.013
  H     -268.038    -146.748    -224.960
  H     -271.900    -148.892    -226.461
  H     -270.297    -149.532    -225.995
  H     -270.421    -148.059    -227.010
  H     -266.371    -146.868    -217.528
  H     -267.042    -148.480    -217.595
  H     -267.431    -147.427    -216.256

 3  4  5  6  7  8  9  10  11  12  13  24  27  28  29  30  32 0
 6-311+G(2d,p)
 ****
 34  35 0
 6-311+G(2d,p)
 ****
 1  2  14  15  16  17  18  19  20  21  22  23  25  26 0
 3-21G
 ****
 31  33  36  37  38  39  40  41  42  43  44  45  46 0
 3-21G
 ****


