%nproc=1
%NoSave
%Mem=1900MB
#P OB98/GEN NMR

erre ene a

0 1
  C     -107.018      44.060       2.719
  O     -108.250      44.530       3.243
  P     -108.826      43.971       4.635
  C     -109.243      41.593       5.562
  O     -108.987      42.391       4.413
  C     -110.139      40.416       5.187
  O     -111.420      40.906       4.743
  C     -109.606      39.555       4.049
  O     -108.563      38.702       4.498
  C     -110.881      38.850       3.599
  O     -111.183      37.753       4.478
  C     -111.936      39.964       3.771
  N     -112.267      40.631       2.516
  C     -113.249      40.021       1.726
  O     -113.802      38.983       2.088
  N     -113.612      40.625       0.546
  C     -113.032      41.726       0.175
  N     -113.481      42.315      -0.969
  C     -111.955      42.371       0.948
  C     -111.631      41.779       2.098
  O     -110.055      44.660       5.127
  O     -107.591      44.055       5.644
  H     -110.466      37.097       4.363
  H     -107.520      44.925       6.111
  H     -111.492      43.280       0.591
  H     -110.863      42.201       2.735
  H     -112.855      39.552       4.206
  H     -110.827      38.456       2.578
  H     -109.229      40.186       3.235
  H     -110.298      39.805       6.087
  H     -114.331      41.937      -1.370
  H     -109.755      42.211       6.309
  H     -113.293      43.291      -1.169
  H     -108.292      41.248       5.982
  P     -107.399      38.342       3.454
  C     -107.427      37.420       1.029
  O     -108.112      37.530       2.265
  O     -106.535      37.243       4.231
  O     -106.573      39.511       3.024
  H     -105.728      37.645       4.603
  H     -107.924      36.654       0.427
  H     -106.387      37.125       1.188
  H     -107.471      38.371       0.492
  H     -106.814      44.553       1.791
  H     -107.079      43.004       2.556
  H     -106.232      44.269       3.414

 3  4  5  6  7  8  9  10  11  12  13  23  27  28  29  30  32 0
 6-311+G(2d,p)
 ****
 34  35 0
 6-311+G(2d,p)
 ****
 1  2  14  15  16  17  18  19  20  21  22  24  25  26 0
 3-21G
 ****
 31  33  36  37  38  39  40  41  42  43  44  45  46 0
 3-21G
 ****


