%nproc=1
%NoSave
%Mem=1900MB
#P OB98/GEN NMR

erre ene a

0 1
  C      215.354    -216.048    -169.616
  O      214.392    -216.518    -170.539
  H      214.838    -215.542    -168.798
  H      216.017    -215.331    -170.110
  H      215.939    -216.877    -169.206
  P      214.899    -217.571    -171.641
  C      214.808    -215.850    -173.583
  O      215.614    -216.712    -172.795
  C      215.371    -215.740    -174.994
  O      216.653    -215.072    -174.977
  C      215.597    -217.082    -175.689
  O      214.400    -217.573    -176.281
  C      216.609    -216.686    -176.747
  O      215.938    -216.006    -177.831
  C      217.499    -215.694    -175.984
  N      222.488    -216.560    -176.276
  C      221.641    -215.957    -177.184
  N      222.200    -215.530    -178.338
  N      220.355    -215.788    -176.985
  C      219.935    -216.287    -175.798
  C      220.678    -216.912    -174.819
  C      222.095    -217.075    -175.049
  O      222.891    -217.594    -174.270
  N      219.900    -217.282    -173.752
  C      218.684    -216.900    -174.097
  N      218.650    -216.295    -175.330
  O      213.529    -218.055    -172.320
  O      215.679    -218.726    -171.106
  H      215.360    -216.661    -178.265
  H      213.299    -218.938    -171.968
  H      223.466    -216.672    -176.486
  H      217.798    -217.031    -173.488
  H      217.882    -214.895    -176.631
  H      217.124    -217.545    -177.185
  H      223.173    -215.646    -178.565
  H      216.045    -217.821    -175.008
  H      221.596    -215.082    -179.015
  H      214.689    -215.114    -175.584
  H      214.786    -214.856    -173.121
  H      213.786    -216.249    -173.618
  P      214.106    -219.149    -176.202
  C      215.209    -219.633    -178.497
  O      215.218    -219.880    -177.099
  O      212.767    -219.297    -177.069
  O      213.923    -219.694    -174.824
  H      212.018    -219.534    -176.485
  H      216.001    -220.183    -178.961
  H      215.349    -218.587    -178.675
  H      214.271    -219.942    -178.908

 6  7  8  9  10  11  12  13  14  15  26  29  33  34 0
 6-311+G(2d,p)
 ****
 36  38  39  40  41 0
 6-311+G(2d,p)
 ****
 1  2  3  4  5  16  17  18  19  20  21  22  23  24  25 0
 3-21G
 ****
 27  28  30  31  32  35  37  42  43  44  45  46  47 0
 3-21G
 ****
 48  49 0
 3-21G
 ****


