%nproc=1
%NoSave
%Mem=1900MB
#P OB98/GEN NMR

erre ene a

0 1
  C      216.075    -800.273      19.881
  O      216.227    -798.892      19.575
  P      217.293    -798.039      20.428
  C      219.211    -798.162      18.699
  O      218.780    -798.499      20.016
  C      220.654    -797.634      18.708
  O      220.725    -796.498      19.616
  C      221.704    -798.626      19.224
  O      222.324    -799.495      18.276
  C      222.795    -797.684      19.724
  O      223.627    -797.276      18.628
  C      222.021    -796.490      20.266
  N      223.856    -794.739      24.713
  C      224.242    -794.516      23.425
  N      223.713    -795.038      22.313
  C      222.641    -795.827      22.588
  C      222.160    -796.131      23.853
  C      222.817    -795.567      24.954
  N      222.439    -795.791      26.257
  N      221.066    -796.989      23.750
  C      220.928    -797.211      22.448
  N      221.858    -796.512      21.711
  O      217.032    -797.945      21.892
  O      217.189    -796.583      19.745
  H      223.826    -798.094      18.125
  H      217.265    -795.892      20.426
  H      225.089    -793.857      23.277
  H      220.181    -797.855      22.011
  H      222.493    -795.536      20.010
  H      223.454    -798.158      20.455
  H      221.312    -799.227      20.066
  H      220.925    -797.282      17.714
  H      218.551    -797.408      18.261
  H      222.991    -795.370      26.986
  H      221.687    -796.437      26.443
  H      219.111    -799.064      18.086
  P      223.147    -800.789      18.745
  C      220.803    -801.896      19.153
  O      222.121    -801.664      19.619
  O      224.449    -800.503      19.425
  O      223.290    -801.625      17.396
  H      222.450    -801.996      17.057
  H      220.335    -802.658      19.761
  H      220.795    -802.201      18.099
  H      220.213    -800.962      19.261
  H      215.337    -800.702      19.236
  H      215.764    -800.381      20.899
  H      217.009    -800.775      19.738

 3  4  5  6  7  8  9  10  11  12  22  25  29  30  31  32 0
 6-311+G(2d,p)
 ****
 33  36  37 0
 6-311+G(2d,p)
 ****
 1  2  13  14  15  16  17  18  19  20  21  23  24  26 0
 3-21G
 ****
 27  28  34  35  38  39  40  41  42  43  44  45  46  47  48 0
 3-21G
 ****


