%nproc=1
%NoSave
%Mem=1900MB
#P OB98/GEN NMR

erre ene a

0 1
  C     2428.573     356.234    1316.548
  O     2429.021     355.348    1317.592
  P     2428.823     353.754    1317.384
  C     2431.118     352.946    1318.251
  O     2430.260     353.066    1317.110
  C     2432.180     351.850    1318.009
  O     2431.551     350.607    1317.524
  C     2433.237     352.267    1316.944
  O     2434.496     351.676    1317.243
  C     2432.683     351.553    1315.684
  O     2433.736     351.405    1314.718
  C     2432.154     350.262    1316.291
  N     2431.461     346.968    1312.403
  C     2432.561     347.322    1313.084
  N     2432.654     348.181    1314.122
  C     2431.469     348.679    1314.454
  C     2430.234     348.379    1313.879
  C     2430.260     347.478    1312.806
  N     2429.121     347.116    1312.102
  N     2429.209     349.098    1314.483
  C     2429.817     349.837    1315.397
  N     2431.205     349.599    1315.418
  O     2427.777     353.350    1316.407
  O     2428.481     353.220    1318.860
  H     2434.542     351.214    1315.180
  H     2427.735     352.601    1318.806
  H     2433.491     346.883    1312.767
  H     2429.305     350.544    1316.012
  H     2432.961     349.531    1316.519
  H     2431.879     352.148    1315.273
  H     2433.334     353.325    1316.807
  H     2432.659     351.601    1318.953
  H     2430.531     352.679    1319.127
  H     2429.227     346.552    1311.293
  H     2428.250     347.595    1312.249
  H     2431.585     353.924    1318.461
  P     2435.561     352.655    1317.948
  C     2435.577     351.441    1320.303
  O     2435.255     352.629    1319.504
  O     2435.621     354.031    1317.316
  O     2436.921     351.822    1317.788
  H     2436.885     350.914    1318.093
  H     2435.387     351.688    1321.335
  H     2436.615     351.211    1320.131
  H     2434.915     350.620    1319.976
  H     2428.771     357.247    1316.830
  H     2427.522     356.105    1316.397
  H     2429.094     356.008    1315.641

 3  4  5  6  7  8  9  10  11  12  22  25  29  30  31  32 0
 6-311+G(2d,p)
 ****
 33  36  37 0
 6-311+G(2d,p)
 ****
 1  2  13  14  15  16  17  18  19  20  21  23  24  26 0
 3-21G
 ****
 27  28  34  35  38  39  40  41  42  43  44  45  46  47  48 0
 3-21G
 ****


