%nproc=1
%NoSave
%Mem=1900MB
#P OB98/GEN NMR

erre ene a

0 1
  C     -148.131    -294.759     114.419
  O     -148.971    -294.392     115.517
  P     -148.871    -292.868     116.024
  C     -151.416    -292.519     115.606
  O     -150.332    -292.432     116.522
  C     -152.723    -292.093     116.275
  O     -153.171    -293.085     117.216
  C     -152.623    -290.802     117.074
  O     -152.684    -289.658     116.236
  C     -153.868    -290.898     117.946
  O     -155.018    -290.445     117.206
  C     -153.965    -292.407     118.221
  N     -154.936    -292.456     123.195
  C     -155.697    -291.974     122.149
  N     -156.905    -291.459     122.474
  N     -155.317    -292.000     120.901
  C     -154.101    -292.573     120.722
  C     -153.252    -293.084     121.674
  C     -153.673    -293.023     123.059
  O     -153.023    -293.403     124.026
  N     -152.109    -293.590     121.110
  C     -152.280    -293.413     119.815
  N     -153.468    -292.785     119.531
  O     -148.689    -292.050     114.659
  O     -147.755    -292.621     116.980
  H     -154.895    -290.735     116.280
  H     -148.210    -291.216     114.831
  H     -155.276    -292.405     124.140
  H     -151.581    -293.721     119.048
  H     -154.992    -292.775     118.124
  H     -153.806    -290.276     118.844
  H     -157.293    -291.474     123.405
  H     -151.725    -290.800     117.708
  H     -157.493    -291.134     121.716
  H     -153.486    -291.988     115.491
  H     -151.514    -293.544     115.243
  H     -151.198    -291.891     114.738
  P     -151.577    -288.520     116.470
  C     -150.344    -289.350     114.345
  O     -150.918    -288.257     115.032
  O     -150.434    -289.285     117.289
  O     -152.073    -287.314     117.196
  H     -149.950    -288.661     117.859
  H     -150.976    -290.240     114.412
  H     -149.356    -289.569     114.761
  H     -150.230    -289.079     113.290
  H     -148.289    -295.790     114.178
  H     -147.106    -294.608     114.688
  H     -148.369    -294.154     113.570

 3  4  5  6  7  8  9  10  11  12  23  26  30  31  33  0
 6-311+G(2d,p)
 ****
 35  36  37  38 0
 6-311+G(2d,p)
 ****
 1  2  13  14  15  16  17  18  19  20  21  22  24  25  27  28  29 0
 3-21G
 ****
 32  34  39  40  41  42  43  44  45  46  47  48  49 0
 3-21G
 ****


