%nproc=1
%NoSave
%Mem=1900MB
#P OB98/GEN NMR

erre ene a

0 1
  C        3.990       5.017      -7.157
  O        3.102       4.783      -6.087
  H        4.928       4.496      -6.952
  H        4.194       6.089      -7.237
  H        3.584       4.650      -8.103
  P        1.540       5.044      -6.313
  C       -0.277       3.992      -7.813
  O        1.106       4.284      -7.659
  C       -0.687       3.928      -9.284
  O       -0.440       5.198      -9.927
  C        0.121       2.894     -10.068
  O       -0.358       1.564      -9.989
  C        0.014       3.430     -11.493
  O       -1.194       2.972     -12.123
  C       -0.032       4.945     -11.282
  N        2.876       7.526     -14.595
  C        1.620       6.983     -14.781
  N        1.100       7.091     -16.023
  N        0.952       6.375     -13.837
  C        1.636       6.257     -12.675
  C        2.890       6.742     -12.377
  C        3.600       7.463     -13.414
  O        4.718       7.957     -13.303
  N        3.256       6.433     -11.090
  C        2.259       5.700     -10.637
  N        1.241       5.587     -11.554
  O        1.475       6.585      -6.751
  O        0.668       4.785      -5.122
  H       -1.290       2.019     -11.946
  H        0.607       6.960      -6.519
  H        3.332       8.007     -15.350
  H        2.213       5.251      -9.651
  H       -0.777       5.418     -11.934
  H        0.845       3.089     -12.116
  H        1.624       7.446     -16.808
  H        1.173       2.925      -9.768
  H        0.316       6.484     -16.267
  H       -1.764       3.736      -9.351
  H       -0.825       4.790      -7.307
  H       -0.526       3.056      -7.305
  P        0.611       0.341     -10.341
  C        2.591      -0.696      -9.007
  O        1.892       0.470      -9.387
  O        1.171       0.737     -11.787
  O       -0.042      -0.998     -10.346
  H        0.652       0.291     -12.482
  H        3.412      -0.430      -8.375
  H        2.960      -1.191      -9.881
  H        1.931      -1.351      -8.478

 6  7  8  9  10  11  12  13  14  15  26  29  33  34 0
 6-311+G(2d,p)
 ****
 36  38  39  40  41 0
 6-311+G(2d,p)
 ****
 1  2  3  4  5  16  17  18  19  20  21  22  23  24  25 0
 3-21G
 ****
 27  28  30  31  32  35  37  42  43  44  45  46  47 0
 3-21G
 ****
 48  49 0
 3-21G
 ****


