%nproc=1
%NoSave
%Mem=1900MB
#P OB98/GEN NMR

erre ene a

0 1
  C      -69.519     -68.223       5.895
  O      -70.233     -69.059       6.782
  H      -68.461     -68.249       6.169
  H      -69.874     -67.193       5.974
  H      -69.621     -68.577       4.867
  P      -71.820     -69.195       6.595
  C      -71.666     -71.767       6.325
  O      -71.999     -70.530       5.715
  C      -71.757     -72.898       5.306
  O      -70.692     -72.816       4.334
  C      -71.630     -74.300       5.891
  O      -72.779     -74.730       6.601
  C      -71.406     -75.096       4.619
  O      -72.651     -75.242       3.913
  C      -70.434     -74.166       3.857
  N      -69.032     -74.525       4.065
  C      -68.654     -75.820       3.694
  O      -69.477     -76.605       3.226
  N      -67.352     -76.213       3.892
  C      -66.508     -75.393       4.436
  N      -65.233     -75.837       4.615
  C      -66.867     -74.027       4.861
  C      -68.129     -73.661       4.647
  O      -72.525     -67.985       6.074
  O      -72.353     -69.679       8.024
  H      -73.197     -75.863       4.428
  H      -73.335     -69.769       7.965
  H      -66.134     -73.393       5.336
  H      -68.471     -72.674       4.938
  H      -70.646     -74.176       2.781
  H      -71.018     -76.100       4.800
  H      -70.733     -74.384       6.516
  H      -72.701     -72.775       4.760
  H      -65.016     -76.777       4.315
  H      -72.355     -71.933       7.158
  H      -64.531     -75.294       5.099
  H      -70.643     -71.732       6.711
  P      -72.668     -74.778       8.205
  C      -74.362     -73.078       9.234
  O      -73.059     -73.315       8.725
  O      -71.094     -74.875       8.455
  O      -73.426     -75.888       8.861
  H      -70.827     -75.799       8.625
  H      -74.447     -72.054       9.533
  H      -74.536     -73.712      10.078
  H      -75.085     -73.289       8.474

 6  7  8  9  10  11  12  13  14  15  16  26  30  31  32  33  35 0
 6-311+G(2d,p)
 ****
 37  38 0
 6-311+G(2d,p)
 ****
 1  2  3  4  5  17  18  19  20  21  22  23  24  25 0
 3-21G
 ****
 27  28  29  34  36  39  40  41  42  43  44  45  46 0
 3-21G
 ****


