%nproc=1
%NoSave
%Mem=1900MB
#P OB98/GEN NMR

erre ene a

0 1
  C      333.493     459.137    -332.091
  O      333.986     459.813    -330.952
  H      332.457     459.440    -332.256
  H      333.520     458.057    -331.925
  H      334.082     459.395    -332.974
  P      335.533     459.577    -330.579
  C      336.196     461.933    -329.726
  O      335.871     460.596    -329.381
  C      335.708     462.907    -328.650
  O      334.243     462.964    -328.707
  C      336.100     462.524    -327.217
  O      336.339     463.726    -326.482
  C      334.825     461.881    -326.677
  O      334.775     461.880    -325.248
  C      333.775     462.757    -327.355
  N      328.865     463.747    -326.813
  C      329.955     464.598    -326.836
  N      329.703     465.914    -326.693
  N      331.193     464.190    -326.982
  C      331.291     462.849    -327.154
  C      330.294     461.896    -327.144
  C      328.940     462.364    -326.945
  O      327.931     461.656    -326.901
  N      330.812     460.639    -327.312
  C      332.118     460.824    -327.429
  N      332.456     462.149    -327.338
  O      336.295     460.211    -331.841
  O      335.924     458.157    -330.341
  H      335.580     461.420    -324.928
  H      336.486     459.518    -332.502
  H      327.935     464.111    -326.678
  H      332.850     460.042    -327.575
  H      333.675     463.737    -326.872
  H      334.752     460.843    -327.021
  H      328.777     466.310    -326.616
  H      336.973     461.864    -327.146
  H      330.484     466.557    -326.750
  H      336.063     463.912    -328.898
  H      335.725     462.186    -330.682
  H      337.283     462.022    -329.836
  P      337.632     463.787    -325.532
  C      338.851     465.874    -326.497
  O      338.096     465.317    -325.423
  O      338.767     463.131    -326.446
  O      337.473     463.065    -324.234
  H      339.450     462.715    -325.880
  H      339.083     466.895    -326.278
  H      338.278     465.825    -327.399
  H      339.758     465.320    -326.620

 6  7  8  9  10  11  12  13  14  15  26  29  33  34 0
 6-311+G(2d,p)
 ****
 36  38  39  40  41 0
 6-311+G(2d,p)
 ****
 1  2  3  4  5  16  17  18  19  20  21  22  23  24  25 0
 3-21G
 ****
 27  28  30  31  32  35  37  42  43  44  45  46  47 0
 3-21G
 ****
 48  49 0
 3-21G
 ****


