%nproc=1
%NoSave
%Mem=1900MB
#P OB98/GEN NMR

erre ene a

0 1
  C      507.003     533.877     -34.880
  O      507.886     533.064     -34.127
  H      506.858     534.822     -34.351
  H      506.036     533.377     -34.982
  H      507.422     534.086     -35.868
  P      508.413     531.733     -34.844
  C      506.599     530.213     -33.709
  O      507.980     530.491     -33.920
  C      506.438     529.123     -32.652
  O      506.936     527.860     -33.140
  C      507.241     529.360     -31.385
  O      506.701     530.386     -30.583
  C      507.164     527.982     -30.740
  O      505.958     527.817     -29.984
  C      507.178     527.042     -31.970
  N      508.419     526.292     -32.061
  C      508.601     525.317     -31.073
  O      507.736     525.132     -30.217
  N      509.776     524.611     -31.054
  C      510.699     524.873     -31.934
  N      511.854     524.156     -31.845
  C      510.544     525.890     -32.993
  C      509.391     526.558     -32.997
  O      509.995     531.822     -34.619
  O      508.003     531.587     -36.270
  H      505.221     527.843     -30.632
  H      510.248     532.011     -33.702
  H      511.338     526.062     -33.706
  H      509.191     527.325     -33.737
  H      506.348     526.326     -31.914
  H      507.995     527.814     -30.048
  H      508.294     529.559     -31.635
  H      505.369     529.015     -32.434
  H      511.940     523.506     -31.073
  H      506.121     529.905     -34.645
  H      512.663     524.328     -32.422
  H      506.120     531.140     -33.379
  P      507.601     531.621     -30.090
  C      506.954     531.756     -27.598
  O      506.796     532.328     -28.892
  O      508.055     532.551     -31.160
  O      508.801     530.902     -29.303
  H      508.521     530.354     -28.549
  H      506.374     532.310     -26.890
  H      507.986     531.789     -27.317
  H      506.621     530.739     -27.614

 6  7  8  9  10  11  12  13  14  15  16  26  30  31  32  33  35 0
 6-311+G(2d,p)
 ****
 37  38 0
 6-311+G(2d,p)
 ****
 1  2  3  4  5  17  18  19  20  21  22  23  24  25 0
 3-21G
 ****
 27  28  29  34  36  39  40  41  42  43  44  45  46 0
 3-21G
 ****


