%nproc=1
%NoSave
%Mem=1900MB
#P OB98/GEN NMR

erre ene a

0 1
  C      307.666     -65.399    -106.214
  O      306.278     -65.488    -105.960
  P      305.795     -65.496    -104.432
  C      305.911     -67.300    -102.520
  O      306.260     -66.912    -103.839
  C      307.011     -68.183    -101.915
  O      308.256     -67.451    -101.882
  C      306.756     -68.619    -100.480
  O      305.816     -69.679    -100.404
  C      308.168     -68.993    -100.033
  O      308.512     -70.307    -100.507
  C      309.020     -67.926    -100.753
  N      309.423     -66.827     -99.882
  C      310.291     -67.151     -98.846
  O      310.712     -68.289     -98.650
  N      310.650     -66.113     -98.019
  C      310.183     -64.826     -98.095
  O      310.504     -63.952     -97.306
  C      309.248     -64.558     -99.192
  C      308.916     -65.550    -100.020
  O      304.209     -65.638    -104.623
  O      306.234     -64.297    -103.663
  H      303.986     -66.090    -105.456
  H      309.462     -70.439    -100.291
  H      311.297     -66.321     -97.273
  H      308.844     -63.555     -99.274
  H      308.215     -65.368    -100.830
  H      309.926     -68.392    -101.167
  H      308.273     -69.003     -98.944
  H      306.399     -67.771     -99.887
  H      307.146     -69.057    -102.569
  H      304.969     -67.869    -102.555
  H      305.753     -66.410    -101.908
  P      305.074     -69.886     -98.991
  C      306.003     -70.157     -96.566
  O      306.216     -70.305     -97.951
  O      304.262     -71.244     -99.259
  O      304.220     -68.728     -98.583
  H      304.792     -71.907     -99.750
  H      306.704     -70.808     -96.028
  H      304.977     -70.439     -96.283
  H      306.188     -69.118     -96.273
  H      307.836     -65.404    -107.270
  H      308.164     -66.234    -105.768
  H      308.048     -64.491    -105.796

 3  4  5  6  7  8  9  10  11  12  13  24  28  29  30  31  32 0
 6-311+G(2d,p)
 ****
 33  34 0
 6-311+G(2d,p)
 ****
 1  2  14  15  16  17  18  19  20  21  22  23  25  26  27 0
 3-21G
 ****
 35  36  37  38  39  40  41  42  43  44  45 0
 3-21G
 ****


