%nproc=1
%NoSave
%Mem=1900MB
#P OB98/GEN NMR

erre ene a

0 1
  C      128.877     367.119     355.697
  O      129.813     368.186     355.863
  P      129.266     369.657     356.183
  C      128.934     370.200     353.684
  O      128.327     370.134     354.969
  C      128.019     370.923     352.687
  O      127.600     372.215     353.214
  C      128.707     371.187     351.340
  O      127.757     371.126     350.266
  C      129.163     372.626     351.473
  O      129.398     373.224     350.203
  C      127.996     373.222     352.261
  N      128.826     378.242     351.694
  C      128.418     377.296     350.821
  N      128.194     375.985     351.047
  C      128.428     375.679     352.336
  C      128.841     376.539     353.341
  C      129.052     377.880     352.978
  N      129.496     378.839     353.860
  N      128.980     375.866     354.540
  C      128.703     374.613     354.248
  N      128.332     374.454     352.940
  O      130.293     370.651     356.610
  O      128.203     369.392     357.353
  H      129.590     374.168     350.355
  H      128.293     370.091     358.031
  H      128.248     377.638     349.803
  H      128.768     373.784     354.939
  H      127.132     373.422     351.614
  H      130.093     372.673     352.052
  H      129.539     370.512     351.116
  H      127.109     370.327     352.544
  H      129.150     369.191     353.327
  H      129.733     379.745     353.484
  H      129.808     378.551     354.778
  H      129.903     370.705     353.774
  P      127.900     369.863     349.276
  C      128.675     371.371     347.284
  O      128.960     370.301     348.161
  O      126.588     369.350     348.774
  O      128.693     368.813     350.186
  H      129.491     369.166     350.614
  H      129.567     371.591     346.693
  H      128.399     372.270     347.845
  H      127.865     371.095     346.605
  H      129.404     366.211     355.490
  H      128.221     367.344     354.882
  H      128.305     367.003     356.594

 3  4  5  6  7  8  9  10  11  12  22  25  29  30  31  32 0
 6-311+G(2d,p)
 ****
 33  36  37 0
 6-311+G(2d,p)
 ****
 1  2  13  14  15  16  17  18  19  20  21  23  24  26 0
 3-21G
 ****
 27  28  34  35  38  39  40  41  42  43  44  45  46  47  48 0
 3-21G
 ****


