%nproc=1
%NoSave
%Mem=1900MB
#P OB98/GEN NMR

erre ene a

0 1
  C      472.627    -115.064     335.487
  O      473.274    -113.985     334.842
  H      473.284    -115.445     336.276
  H      472.441    -115.865     334.767
  H      471.687    -114.736     335.938
  P      472.402    -113.150     333.783
  C      473.590    -114.413     331.851
  O      472.357    -114.023     332.437
  C      473.348    -115.436     330.741
  O      472.902    -116.690     331.304
  C      472.287    -115.022     329.727
  O      472.812    -114.154     328.732
  C      471.918    -116.373     329.139
  O      472.939    -116.793     328.205
  C      471.936    -117.273     330.380
  N      467.756    -120.092     330.917
  C      468.864    -120.295     330.120
  N      468.860    -121.402     329.347
  N      469.891    -119.486     330.079
  C      469.755    -118.413     330.898
  C      468.706    -118.101     331.732
  C      467.579    -119.012     331.776
  O      466.584    -118.894     332.479
  N      468.937    -116.937     332.415
  C      470.106    -116.527     331.981
  N      470.651    -117.385     331.046
  O      473.362    -111.924     333.394
  O      471.080    -112.664     334.285
  H      472.617    -117.615     327.789
  H      472.811    -111.129     333.254
  H      466.990    -120.744     330.901
  H      470.610    -115.628     332.302
  H      472.266    -118.293     330.156
  H      470.976    -116.353     328.592
  H      468.083    -122.044     329.289
  H      471.404    -114.587     330.220
  H      469.679    -121.592     328.775
  H      474.307    -115.624     330.241
  H      474.229    -114.857     332.620
  H      474.087    -113.523     331.444
  P      471.877    -112.950     328.218
  C      471.397    -114.205     325.995
  O      470.854    -113.613     327.176
  O      472.862    -112.096     327.286
  O      471.270    -112.120     329.303
  H      472.538    -111.181     327.216
  H      470.603    -114.604     325.399
  H      472.069    -114.992     326.267
  H      471.926    -113.463     325.435

 6  7  8  9  10  11  12  13  14  15  26  29  33  34 0
 6-311+G(2d,p)
 ****
 36  38  39  40  41 0
 6-311+G(2d,p)
 ****
 1  2  3  4  5  16  17  18  19  20  21  22  23  24  25 0
 3-21G
 ****
 27  28  30  31  32  35  37  42  43  44  45  46  47 0
 3-21G
 ****
 48  49 0
 3-21G
 ****


