%nproc=1
%NoSave
%Mem=1900MB
#P OB98/GEN NMR

erre ene a

0 1
  C      314.845    -694.562    -775.571
  O      314.285    -693.260    -775.523
  H      315.936    -694.475    -775.636
  H      314.478    -695.095    -776.464
  H      314.581    -695.123    -774.669
  P      312.680    -693.178    -775.491
  C      312.916    -690.884    -774.299
  O      312.316    -691.613    -775.361
  C      313.308    -689.483    -774.769
  O      314.414    -689.539    -775.721
  C      312.178    -688.709    -775.453
  O      311.347    -688.079    -774.497
  C      312.969    -687.716    -776.290
  O      313.422    -686.599    -775.488
  C      314.181    -688.558    -776.762
  N      313.134    -687.862    -781.658
  C      313.183    -686.955    -780.620
  N      312.877    -685.679    -780.917
  N      313.487    -687.270    -779.380
  C      313.713    -688.606    -779.213
  C      313.695    -689.601    -780.156
  C      313.426    -689.227    -781.526
  O      313.441    -689.971    -782.517
  N      314.005    -690.833    -779.612
  C      314.154    -690.568    -778.319
  N      313.998    -689.230    -778.031
  O      312.315    -693.761    -774.045
  O      311.970    -693.923    -776.573
  H      312.654    -686.190    -775.060
  H      311.487    -694.295    -774.124
  H      312.933    -687.554    -782.587
  H      314.406    -691.305    -777.570
  H      315.085    -687.951    -776.860
  H      312.357    -687.300    -777.099
  H      312.365    -685.419    -781.753
  H      311.614    -689.374    -776.120
  H      312.831    -685.025    -780.130
  H      313.685    -688.924    -773.887
  H      313.831    -691.428    -773.977
  H      312.229    -690.815    -773.457
  P      309.835    -687.752    -774.925
  C      309.200    -688.938    -772.691
  O      308.904    -687.892    -773.618
  O      309.413    -689.031    -775.810
  O      309.677    -686.474    -775.690
  H      309.413    -688.775    -776.767
  H      308.502    -688.905    -771.881
  H      310.192    -688.809    -772.312
  H      309.128    -689.884    -773.186

 6  7  8  9  10  11  12  13  14  15  26  29  33  34 0
 6-311+G(2d,p)
 ****
 36  38  39  40  41 0
 6-311+G(2d,p)
 ****
 1  2  3  4  5  16  17  18  19  20  21  22  23  24  25 0
 3-21G
 ****
 27  28  30  31  32  35  37  42  43  44  45  46  47 0
 3-21G
 ****
 48  49 0
 3-21G
 ****


