%nproc=1
%NoSave
%Mem=1900MB
#P OB98/GEN NMR

erre ene a

0 1
  C     -305.921      77.923    -487.522
  O     -306.598      78.233    -486.317
  H     -306.564      78.192    -488.364
  H     -305.697      76.858    -487.567
  H     -304.990      78.501    -487.590
  P     -305.805      77.931    -484.951
  C     -305.165      80.442    -484.638
  O     -305.835      79.296    -484.102
  C     -305.719      81.701    -483.986
  O     -306.991      82.060    -484.581
  C     -306.002      81.562    -482.484
  O     -304.809      81.655    -481.701
  C     -306.973      82.715    -482.268
  O     -306.286      83.963    -482.074
  C     -307.774      82.742    -483.566
  N     -312.537      83.383    -481.856
  C     -311.476      84.226    -481.921
  N     -310.243      83.988    -482.406
  C     -310.162      82.720    -482.875
  C     -311.162      81.754    -482.878
  C     -312.401      82.131    -482.334
  N     -313.481      81.263    -482.246
  N     -310.681      80.565    -483.414
  C     -309.425      80.805    -483.731
  N     -309.073      82.114    -483.441
  O     -304.285      77.817    -485.433
  O     -306.254      76.713    -484.218
  H     -305.728      84.079    -482.880
  H     -304.042      76.874    -485.512
  H     -311.652      85.239    -481.531
  H     -308.739      80.110    -484.178
  H     -307.932      83.768    -483.930
  H     -307.586      82.539    -481.377
  H     -306.522      80.613    -482.295
  H     -305.023      82.542    -484.176
  H     -305.330      80.495    -485.726
  H     -304.089      80.346    -484.440
  H     -314.299      81.579    -481.780
  H     -313.341      80.291    -482.502
  P     -304.636      80.585    -480.529
  C     -302.772      79.440    -481.967
  O     -303.172      79.930    -480.692
  O     -305.625      79.384    -480.926
  O     -304.927      81.116    -479.151
  H     -306.012      78.997    -480.116
  H     -301.781      79.041    -481.901
  H     -302.788      80.240    -482.678
  H     -303.446      78.671    -482.281

 6  7  8  9  10  11  12  13  14  15  25  28  32  33  34  35 0
 6-311+G(2d,p)
 ****
 36  37  40 0
 6-311+G(2d,p)
 ****
 1  2  3  4  5  16  17  18  19  20  21  22  23  24 0
 3-21G
 ****
 26  27  29  30  31  38  39 41  42  43  44  45  46  47  48 0
 3-21G
 ****


