%nproc=1
%NoSave
%Mem=1900MB
#P OB98/GEN NMR

erre ene a

0 1
  C     -512.039      66.288    -658.147
  O     -511.534      66.337    -656.824
  P     -509.951      66.180    -656.632
  C     -510.795      65.658    -654.228
  O     -509.712      66.093    -655.049
  C     -510.349      65.540    -652.774
  O     -509.282      64.582    -652.677
  C     -509.812      66.819    -652.163
  O     -510.869      67.689    -651.817
  C     -509.025      66.294    -650.979
  O     -509.879      66.135    -649.830
  C     -508.523      64.924    -651.492
  N     -507.090      64.917    -651.751
  C     -506.258      65.033    -650.618
  O     -506.759      65.166    -649.497
  N     -504.900      65.045    -650.809
  C     -504.409      64.956    -652.001
  N     -503.052      64.968    -652.123
  C     -505.246      64.845    -653.226
  C     -506.567      64.832    -653.011
  O     -509.389      67.632    -657.012
  O     -509.323      65.099    -657.454
  H     -509.272      66.049    -649.059
  H     -508.474      67.590    -657.330
  H     -504.781      64.761    -654.186
  H     -507.249      64.756    -653.855
  H     -508.734      64.138    -650.746
  H     -508.221      66.975    -650.688
  H     -509.128      67.320    -652.880
  H     -511.201      65.152    -652.178
  H     -502.499      65.054    -651.278
  H     -511.161      64.687    -654.575
  H     -502.579      64.878    -653.013
  H     -511.619      66.389    -654.317
  P     -510.735      69.246    -652.228
  C     -512.301      69.767    -650.272
  O     -512.057      69.928    -651.650
  O     -511.023      69.218    -653.802
  O     -509.435      69.909    -651.915
  H     -510.868      70.094    -654.191
  H     -513.137      70.410    -649.978
  H     -511.429      70.046    -649.682
  H     -512.568      68.717    -650.067
  H     -513.102      66.405    -658.127
  H     -511.792      65.345    -658.588
  H     -511.604      67.077    -658.724

 3  4  5  6  7  8  9  10  11  12  13  21  23  27  28  29  30  32 0
 6-311+G(2d,p)
 ****
 34  35 0
 6-311+G(2d,p)
 ****
 1  2  14  15  16  17  18  19  20  22  24  25  26 0
 3-21G
 ****
 31  33  36  37  38  39  40  41  42  43  44  45  46 0
 3-21G
 ****


