%nproc=1
%NoSave
%Mem=1900MB
#P OB98/GEN NMR

erre ene a

0 1
  C      -92.613    -429.056    -617.403
  O      -91.717    -428.465    -618.356
  P      -90.177    -428.945    -618.273
  C      -88.633    -427.546    -616.708
  O      -89.623    -428.567    -616.813
  C      -87.928    -427.610    -615.354
  O      -88.633    -426.894    -614.326
  C      -87.766    -429.037    -614.830
  O      -86.669    -429.662    -615.471
  C      -87.527    -428.796    -613.344
  O      -86.141    -428.486    -613.077
  C      -88.405    -427.561    -613.061
  N      -91.428    -426.563    -609.093
  C      -90.118    -426.196    -609.326
  N      -89.538    -425.412    -608.392
  N      -89.433    -426.531    -610.396
  C      -90.134    -427.312    -611.253
  C      -91.455    -427.734    -611.141
  C      -92.188    -427.345    -609.959
  O      -93.356    -427.629    -609.717
  N      -91.840    -428.457    -612.250
  C      -90.732    -428.569    -612.956
  N      -89.685    -427.849    -612.428
  O      -89.419    -427.930    -619.251
  O      -89.977    -430.372    -618.681
  H      -85.850    -427.770    -613.675
  H      -89.124    -428.405    -620.050
  H      -91.897    -426.286    -608.256
  H      -90.630    -429.156    -613.862
  H      -87.897    -426.846    -612.398
  H      -87.768    -429.671    -612.742
  H      -90.001    -425.101    -607.546
  H      -88.696    -429.602    -614.972
  H      -88.575    -425.108    -608.549
  H      -86.928    -427.141    -615.471
  H      -89.109    -426.563    -616.840
  H      -87.926    -427.653    -617.536
  P      -86.985    -430.766    -616.597
  C      -86.011    -432.842    -615.385
  O      -87.167    -432.171    -615.844
  O      -85.583    -430.905    -617.372
  O      -88.087    -430.385    -617.527
  H      -85.748    -430.923    -618.326
  H      -86.292    -433.444    -614.503
  H      -85.220    -432.147    -615.106
  H      -85.641    -433.519    -616.165
  H      -93.599    -428.666    -617.551
  H      -92.283    -428.824    -616.412
  H      -92.625    -430.118    -617.536

 3  4  5  6  7  8  9  10  11  12  23  26  30  31 0
 6-311+G(2d,p)
 ****
 33  35  36  37  38 0
 6-311+G(2d,p)
 ****
 1  2  13  14  15  16  17  18  19  20  21  22  24  25 0
 3-21G
 ****
 27  28  29  32  34  39  40  41  42  43  44  45  46  47  48  49 0
 3-21G
 ****


