%nproc=1
%NoSave
%Mem=1900MB
#P OB98/GEN NMR

erre ene a

0 1
  C      -42.828      61.152      88.946
  O      -44.026      60.841      89.627
  H      -42.457      62.113      89.309
  H      -43.021      61.233      87.873
  H      -42.072      60.386      89.132
  P      -44.695      59.418      89.305
  C      -47.040      60.501      89.078
  O      -46.026      59.724      88.457
  C      -48.421      60.086      88.577
  O      -48.579      60.538      87.199
  C      -48.671      58.570      88.594
  O      -50.051      58.351      88.910
  C      -48.449      58.175      87.143
  O      -49.084      56.943      86.807
  C      -49.028      59.400      86.438
  N      -50.307      58.143      81.738
  C      -50.980      57.959      82.930
  N      -52.181      57.344      82.863
  N      -50.516      58.344      84.089
  C      -49.320      58.975      84.004
  C      -48.551      59.214      82.891
  C      -49.064      58.758      81.616
  O      -48.506      58.875      80.530
  N      -47.385      59.857      83.225
  C      -47.451      60.006      84.536
  N      -48.606      59.486      85.054
  O      -45.253      58.963      90.733
  O      -43.780      58.401      88.711
  H      -49.055      56.845      85.833
  H      -44.598      58.403      91.189
  H      -50.703      57.815      80.874
  H      -46.696      60.474      85.153
  H      -50.125      59.400      86.435
  H      -47.376      58.074      86.937
  H      -52.621      57.063      82.002
  H      -48.037      58.015      89.292
  H      -52.708      57.240      83.721
  H      -49.179      60.612      89.169
  H      -46.874      61.558      88.839
  H      -46.981      60.369      90.164
  P      -50.471      58.307      90.454
  C      -50.811      55.782      90.976
  O      -49.963      56.916      91.070
  O      -52.058      58.103      90.386
  O      -50.105      59.531      91.226
  H      -52.476      58.484      91.181
  H      -50.332      54.940      91.430
  H      -51.008      55.568      89.946
  H      -51.733      55.983      91.481

 6  7  8  9  10  11  12  13  14  15  26  29  33  34 0
 6-311+G(2d,p)
 ****
 36  38  39  40  41 0
 6-311+G(2d,p)
 ****
 1  2  3  4  5  16  17  18  19  20  21  22  23  24  25 0
 3-21G
 ****
 27  28  30  31  32  35  37  42  43  44  45  46  47 0
 3-21G
 ****
 48  49 0
 3-21G
 ****


