%nproc=1
%NoSave
%Mem=1900MB
#P OB98/GEN NMR

erre ene a

0 1
  C       81.314     229.354     248.998
  O       80.611     228.229     248.509
  H       82.315     229.035     249.307
  H       80.804     229.788     249.861
  H       81.414     230.106     248.211
  P       79.037     228.381     248.234
  C       79.182     226.064     247.103
  O       78.488     226.886     248.040
  C       78.626     224.638     247.102
  O       77.193     224.663     246.945
  C       79.135     223.781     245.952
  O       80.507     223.442     246.051
  C       78.093     222.678     245.878
  O       78.349     221.593     246.767
  C       76.810     223.421     246.322
  N       75.885     223.631     245.211
  C       74.835     222.730     245.120
  O       74.669     221.790     245.899
  N       73.977     222.913     244.067
  C       74.107     223.860     243.090
  O       73.326     223.951     242.146
  C       75.254     224.769     243.224
  C       76.082     224.616     244.260
  O       78.658     229.316     247.126
  O       78.444     228.803     249.658
  H       79.252     221.272     246.576
  H       77.534     229.182     249.569
  H       73.201     222.278     243.991
  H       75.388     225.527     242.465
  H       76.942     225.273     244.381
  H       76.282     222.838     247.088
  H       78.025     222.255     244.872
  H       79.035     224.364     245.028
  H       78.851     224.179     248.071
  H       80.235     226.040     247.401
  H       79.108     226.508     246.102
  P       81.446     223.223     244.775
  C       83.428     224.509     245.869
  O       82.978     223.301     245.265
  O       81.055     223.932     243.521
  O       81.251     221.639     244.512
  H       81.299     221.497     243.549
  H       84.458     224.410     246.140
  H       82.847     224.708     246.745
  H       83.317     225.317     245.176

 6  7  8  9  10  11  12  13  14  15  16  26  31  32  33  34  35 0
 6-311+G(2d,p)
 ****
 36  37 0
 6-311+G(2d,p)
 ****
 1  2  3  4  5  17  18  19  20  21  22  23  24  25 0
 3-21G
 ****
 27  28  29  30  38  39  40  41  42  43  44  45 0
 3-21G
 ****


