%nproc=1
%NoSave
%Mem=1900MB
#P OB98/GEN NMR

erre ene a

0 1
  C     1171.696    -640.457    -659.405
  O     1172.040    -639.306    -658.678
  P     1173.517    -638.628    -658.717
  C     1175.026    -638.920    -656.607
  O     1174.502    -639.524    -657.799
  C     1174.071    -639.036    -655.426
  O     1173.548    -640.379    -655.312
  C     1174.849    -638.759    -654.105
  O     1175.072    -637.433    -653.676
  C     1174.184    -639.683    -653.082
  O     1173.236    -639.013    -652.259
  C     1173.500    -640.754    -653.940
  N     1173.732    -644.955    -651.095
  C     1172.791    -643.929    -651.068
  N     1171.914    -643.952    -650.014
  N     1172.735    -642.981    -651.953
  C     1173.721    -643.051    -652.888
  C     1174.667    -644.030    -653.047
  C     1174.697    -645.087    -652.062
  O     1175.564    -645.983    -652.025
  N     1175.549    -643.735    -654.048
  C     1175.150    -642.563    -654.503
  N     1174.067    -642.103    -653.798
  O     1173.565    -637.133    -658.621
  O     1173.979    -639.037    -660.240
  H     1173.021    -639.585    -651.498
  H     1174.518    -638.295    -660.559
  H     1173.747    -645.609    -650.331
  H     1175.628    -641.996    -655.307
  H     1172.427    -640.825    -653.672
  H     1174.960    -640.083    -652.392
  H     1172.036    -644.566    -649.241
  H     1175.847    -639.177    -654.262
  H     1171.333    -643.111    -649.867
  H     1173.185    -638.375    -655.552
  H     1175.238    -637.875    -656.856
  H     1175.971    -639.416    -656.376
  P     1176.131    -636.990    -652.574
  C     1175.082    -635.729    -650.605
  O     1175.419    -636.993    -651.142
  O     1176.346    -635.395    -652.864
  O     1177.426    -637.692    -652.641
  H     1177.208    -635.121    -652.497
  H     1174.889    -635.849    -649.534
  H     1174.162    -635.344    -651.119
  H     1175.878    -634.983    -650.772
  H     1170.673    -640.706    -659.215
  H     1172.323    -641.270    -659.104
  H     1171.830    -640.272    -660.450

 3  4  5  6  7  8  9  10  11  12  23  26  30  31 0
 6-311+G(2d,p)
 ****
 33  35  36  37  38 0
 6-311+G(2d,p)
 ****
 1  2  13  14  15  16  17  18  19  20  21  22  24  25 0
 3-21G
 ****
 27  28  29  32  34  39  40  41  42  43  44  45  46  47  48  49 0
 3-21G
 ****


