%nproc=1
%NoSave
%Mem=1900MB
#P OB98/GEN NMR

erre ene a

0 1
  C      130.093     528.841     304.570
  O      130.297     528.701     303.168
  P      129.727     527.432     302.384
  C      129.696     524.907     303.104
  O      130.407     526.122     302.979
  C      130.670     523.793     303.510
  O      131.242     524.079     304.808
  C      129.982     522.439     303.587
  O      130.129     521.726     302.363
  C      130.679     521.773     304.761
  O      131.937     521.207     304.343
  C      130.918     522.974     305.697
  N      129.814     523.411     306.573
  C      129.249     522.514     307.483
  O      129.650     521.364     307.631
  N      128.192     522.994     308.215
  C      127.674     524.254     308.148
  O      126.593     524.602     308.607
  C      128.473     525.228     307.380
  C      129.473     524.766     306.623
  O      130.405     527.574     300.931
  O      128.235     527.344     302.301
  H      131.760     520.699     303.526
  H      129.773     527.978     300.306
  H      127.687     522.299     308.769
  H      128.189     526.266     307.411
  H      130.047     525.447     306.015
  H      131.791     522.809     306.339
  H      130.086     520.951     305.153
  H      128.913     522.566     303.833
  H      131.490     523.760     302.777
  H      129.200     524.663     302.159
  H      128.906     525.013     303.867
  P      129.287     520.395     302.114
  C      129.106     518.277     303.559
  O      129.959     519.287     303.081
  O      129.134     519.978     300.688
  O      127.876     520.704     302.807
  H      127.229     520.993     302.127
  H      129.707     517.504     304.042
  H      128.544     517.821     302.730
  H      128.405     518.691     304.289
  H      130.546     529.750     304.907
  H      130.536     528.011     305.079
  H      129.044     528.868     304.777

 3  4  5  6  7  8  9  10  11  12  13  23  28  29  30  31  32 0
 6-311+G(2d,p)
 ****
 33  34 0
 6-311+G(2d,p)
 ****
 1  2  14  15  16  17  18  19  20  21  22  24  25  26  27 0
 3-21G
 ****
 35  36  37  38  39  40  41  42  43  44  45 0
 3-21G
 ****


