%nproc=1
%NoSave
%Mem=1900MB
#P OB98/GEN NMR

erre ene a

0 1
  C      306.614    -262.080     304.410
  O      306.996    -260.743     304.677
  H      305.848    -262.091     303.629
  H      307.489    -262.628     304.049
  H      306.238    -262.566     305.313
  P      305.959    -259.837     305.491
  C      307.252    -260.186     307.716
  O      306.021    -260.332     307.020
  C      307.204    -258.977     308.647
  O      306.311    -259.286     309.755
  C      308.563    -258.573     309.241
  O      308.635    -257.144     309.289
  C      308.501    -259.117     310.656
  O      309.349    -258.406     311.552
  C      307.020    -258.966     310.968
  N      304.703    -259.072     315.493
  C      304.722    -258.148     314.510
  N      305.320    -258.223     313.304
  C      305.892    -259.423     313.135
  C      305.951    -260.475     314.040
  C      305.326    -260.255     315.280
  N      305.361    -261.166     316.311
  N      306.677    -261.526     313.514
  C      307.072    -261.112     312.321
  N      306.623    -259.844     312.050
  O      304.539    -260.384     304.978
  O      306.087    -258.360     305.289
  H      309.429    -258.916     312.378
  H      304.277    -259.905     304.172
  H      304.196    -257.218     314.725
  H      307.701    -261.665     311.641
  H      306.747    -257.937     311.267
  H      308.799    -260.169     310.658
  H      309.423    -258.965     308.684
  H      306.755    -258.135     308.099
  H      308.062    -260.039     306.987
  H      304.981    -260.878     317.207
  H      305.917    -262.000     316.211
  H      307.456    -261.098     308.288
  P      309.770    -256.422     308.412
  C      308.553    -256.196     306.119
  O      309.564    -256.847     306.878
  O      311.101    -257.195     308.838
  O      309.879    -254.955     308.659
  H      311.863    -256.593     308.805
  H      308.544    -256.590     305.124
  H      308.753    -255.146     306.085
  H      307.600    -256.363     306.577

 6  7  8  9  10  11  12  13  14  15  25  28  32  33  34  35 0
 6-311+G(2d,p)
 ****
 36  39  40 0
 6-311+G(2d,p)
 ****
 1  2  3  4  5  16  17  18  19  20  21  22  23  24 0
 3-21G
 ****
 26  27  29  30  31  37  38  41  42  43  44  45  46  47 0
 3-21G
 ****
 48 0
 3-21G
 ****


