%nproc=1
%NoSave
%Mem=1900MB
#P OB98/GEN NMR

erre ene a

0 1
  C     -190.884    -891.593    -429.993
  O     -190.971    -892.851    -429.345
  P     -189.606    -893.689    -429.192
  C     -190.188    -894.888    -426.953
  O     -189.399    -893.924    -427.620
  C     -190.364    -894.493    -425.479
  O     -191.133    -893.274    -425.377
  C     -191.086    -895.530    -424.626
  O     -190.194    -896.551    -424.218
  C     -191.612    -894.673    -423.481
  O     -190.581    -894.434    -422.502
  C     -191.992    -893.370    -424.210
  N     -196.762    -893.376    -422.526
  C     -195.576    -893.637    -421.857
  N     -195.685    -893.891    -420.535
  N     -194.402    -893.642    -422.421
  C     -194.457    -893.388    -423.750
  C     -195.561    -893.131    -424.537
  C     -196.847    -893.074    -423.884
  O     -197.908    -892.749    -424.413
  N     -195.212    -892.936    -425.847
  C     -193.897    -893.045    -425.857
  N     -193.387    -893.299    -424.604
  O     -188.477    -892.625    -429.574
  O     -189.528    -894.936    -430.016
  H     -190.460    -895.230    -421.964
  H     -188.197    -892.744    -430.507
  H     -197.633    -893.365    -422.030
  H     -193.271    -892.930    -426.725
  H     -191.789    -892.486    -423.593
  H     -192.434    -895.151    -422.956
  H     -196.557    -893.927    -420.031
  H     -191.929    -895.954    -425.182
  H     -194.832    -894.080    -420.022
  H     -189.365    -894.287    -425.068
  H     -189.688    -895.867    -427.002
  H     -191.166    -894.973    -427.441
  P     -190.300    -897.973    -424.948
  C     -187.953    -897.872    -426.066
  O     -189.356    -897.916    -426.244
  O     -191.784    -897.965    -425.557
  O     -190.088    -899.150    -424.057
  H     -192.161    -898.866    -425.504
  H     -187.475    -898.339    -426.919
  H     -187.651    -898.388    -425.150
  H     -187.634    -896.823    -426.010
  H     -191.854    -891.143    -430.029
  H     -190.517    -891.729    -430.989
  H     -190.216    -890.958    -429.450

 3  4  5  6  7  8  9  10  11  12  23  26  30  31 0
 6-311+G(2d,p)
 ****
 33  35  36  37  38 0
 6-311+G(2d,p)
 ****
 1  2  13  14  15  16  17  18  19  20  21  22  24  25 0
 3-21G
 ****
 27  28  29  32  34  39  40  41  42  43  44  45  46  47  48  49 0
 3-21G
 ****


