%nproc=1
%NoSave
%Mem=1900MB
#P OB98/GEN NMR

erre ene a

0 1
  C     1087.716     548.181    -551.235
  O     1089.115     548.378    -551.216
  H     1087.232     549.136    -551.451
  H     1087.361     547.824    -550.263
  H     1087.448     547.467    -552.018
  P     1090.052     547.143    -550.805
  C     1091.416     547.589    -552.964
  O     1091.451     547.444    -551.555
  C     1092.520     548.540    -553.428
  O     1092.212     549.908    -553.068
  C     1093.891     548.267    -552.804
  O     1094.544     547.124    -553.345
  C     1094.604     549.569    -553.180
  O     1094.964     549.534    -554.564
  C     1093.474     550.604    -552.924
  N     1093.566     551.220    -551.585
  C     1094.160     552.482    -551.526
  O     1094.582     553.037    -552.535
  N     1094.296     553.088    -550.294
  C     1093.887     552.463    -549.219
  N     1094.101     553.089    -548.019
  C     1093.245     551.142    -549.250
  C     1093.112     550.569    -550.453
  O     1089.489     545.779    -551.018
  O     1090.449     547.433    -549.274
  H     1095.398     550.380    -554.775
  H     1091.022     546.692    -548.967
  H     1092.931     550.666    -548.333
  H     1092.670     549.605    -550.551
  H     1093.506     551.405    -553.679
  H     1095.526     549.741    -552.601
  H     1093.815     548.207    -551.712
  H     1092.556     548.489    -554.523
  H     1094.581     553.972    -548.036
  H     1090.424     547.975    -553.246
  H     1094.068     552.562    -547.156
  H     1091.572     546.624    -553.456
  P     1095.811     546.537    -552.530
  C     1095.623     544.255    -553.761
  O     1096.430     545.380    -553.441
  O     1095.127     545.760    -551.319
  O     1096.816     547.570    -552.094
  H     1095.069     546.337    -550.524
  H     1096.182     543.578    -554.373
  H     1094.752     544.580    -554.291
  H     1095.327     543.760    -552.860

 6  7  8  9  10  11  12  13  14  15  16  26  30  31  32  33  35 0
 6-311+G(2d,p)
 ****
 37  38 0
 6-311+G(2d,p)
 ****
 1  2  3  4  5  17  18  19  20  21  22  23  24  25 0
 3-21G
 ****
 27  28  29  34  36  39  40  41  42  43  44  45  46 0
 3-21G
 ****


