%nproc=1
%NoSave
%Mem=1900MB
#P OB98/GEN NMR

erre ene a

0 1
  C     1185.393     793.390    -795.635
  O     1184.827     794.163    -794.601
  P     1185.830     794.894    -793.584
  C     1184.131     796.777    -793.024
  O     1184.900     795.688    -792.549
  C     1183.262     797.336    -791.910
  O     1184.092     797.889    -790.863
  C     1182.354     798.480    -792.333
  O     1181.227     797.981    -793.041
  C     1182.012     799.127    -791.006
  O     1180.888     798.482    -790.386
  C     1183.301     798.889    -790.182
  N     1184.072     800.111    -789.975
  C     1183.336     801.228    -789.539
  O     1182.112     801.140    -789.369
  N     1183.986     802.412    -789.356
  C     1185.276     802.482    -789.578
  N     1185.875     803.684    -789.360
  C     1186.081     801.337    -790.051
  C     1185.417     800.200    -790.237
  O     1186.476     796.051    -794.475
  O     1186.868     793.987    -792.983
  H     1180.908     797.548    -790.699
  H     1187.359     796.298    -794.149
  H     1187.141     801.448    -790.227
  H     1185.935     799.306    -790.584
  H     1183.054     798.470    -789.196
  H     1181.757     800.181    -791.105
  H     1182.907     799.201    -792.962
  H     1182.673     796.523    -791.480
  H     1185.301     804.449    -789.053
  H     1183.474     796.430    -793.835
  H     1186.875     803.838    -789.489
  H     1184.806     797.549    -793.424
  P     1180.948     798.566    -794.498
  C     1180.613     796.106    -795.175
  O     1180.097     797.425    -795.242
  O     1182.383     798.419    -795.199
  O     1180.411     799.959    -794.600
  H     1182.367     798.843    -796.080
  H     1179.868     795.419    -795.580
  H     1180.826     795.840    -794.127
  H     1181.517     796.027    -795.764
  H     1184.612     792.965    -796.231
  H     1185.985     792.606    -795.211
  H     1186.011     794.012    -796.248

 3  4  5  6  7  8  9  10  11  12  13  21  23  27  28  29  30  32 0
 6-311+G(2d,p)
 ****
 34  35 0
 6-311+G(2d,p)
 ****
 1  2  14  15  16  17  18  19  20  22  24  25  26 0
 3-21G
 ****
 31  33  36  37  38  39  40  41  42  43  44  45  46 0
 3-21G
 ****


