%nproc=1
%NoSave
%Mem=1900MB
#P OB98/GEN NMR

erre ene a

0 1
  C       71.152    -108.649    -176.232
  O       70.583    -107.580    -176.970
  P       70.267    -107.825    -178.525
  C       71.833    -108.225    -180.569
  O       71.610    -108.411    -179.181
  C       73.333    -108.150    -180.865
  O       73.863    -106.938    -180.270
  C       74.155    -109.322    -180.315
  O       75.240    -109.536    -181.227
  C       74.692    -108.777    -179.006
  O       75.846    -109.478    -178.550
  C       74.935    -107.322    -179.382
  N       76.640    -106.772    -174.652
  C       76.742    -107.852    -175.510
  N       77.452    -108.909    -175.059
  N       76.201    -107.890    -176.700
  C       75.537    -106.754    -177.018
  C       75.335    -105.637    -176.243
  C       75.968    -105.592    -174.945
  O       75.977    -104.622    -174.189
  N       74.533    -104.724    -176.876
  C       74.319    -105.255    -178.063
  N       74.947    -106.462    -178.212
  O       70.178    -106.340    -179.108
  O       69.043    -108.633    -178.818
  H       76.543    -109.377    -179.229
  H       69.255    -106.021    -179.119
  H       77.095    -106.793    -173.755
  H       73.731    -104.812    -178.850
  H       75.886    -107.176    -179.909
  H       73.922    -108.861    -178.229
  H       77.921    -108.936    -174.166
  H       73.578    -110.242    -180.190
  H       77.570    -109.701    -175.681
  H       73.465    -108.067    -181.950
  H       71.370    -107.282    -180.879
  H       71.365    -109.040    -181.128
  P       75.682    -111.046    -181.526
  C       77.327    -112.623    -180.296
  O       76.317    -111.640    -180.183
  O       76.956    -110.861    -182.484
  O       74.639    -111.884    -182.189
  H       77.004    -111.605    -183.112
  H       77.915    -112.629    -179.376
  H       77.993    -112.424    -181.139
  H       76.864    -113.607    -180.425
  H       71.305    -108.341    -175.219
  H       72.090    -108.923    -176.667
  H       70.490    -109.489    -176.253

 3  4  5  6  7  8  9  10  11  12  23  26  30  31 0
 6-311+G(2d,p)
 ****
 33  35  36  37  38 0
 6-311+G(2d,p)
 ****
 1  2  13  14  15  16  17  18  19  20  21  22  24  25 0
 3-21G
 ****
 27  28  29  32  34  39  40  41  42  43  44  45  46  47  48  49 0
 3-21G
 ****


