%nproc=1
%NoSave
%Mem=1900MB
#P OB98/GEN NMR

erre ene a

0 1
  C      148.928     112.702    -305.206
  O      150.243     112.401    -305.644
  P      150.571     112.193    -307.203
  C      150.801     109.633    -306.964
  O      150.070     110.708    -307.539
  C      150.034     108.327    -307.151
  O      148.732     108.438    -306.543
  C      149.777     107.948    -308.605
  O      150.949     107.422    -309.213
  C      148.618     106.966    -308.448
  O      149.110     105.677    -308.053
  C      147.821     107.597    -307.292
  N      146.663     108.364    -307.754
  C      145.512     107.629    -308.062
  O      145.490     106.404    -307.932
  N      144.392     108.304    -308.477
  C      144.421     109.596    -308.601
  N      143.264     110.219    -308.948
  C      145.627     110.403    -308.342
  C      146.699     109.729    -307.918
  O      151.981     112.479    -307.590
  O      149.493     113.100    -307.962
  H      149.666     105.814    -307.260
  H      149.792     114.034    -308.101
  H      145.608     111.477    -308.468
  H      147.622     110.251    -307.688
  H      147.479     106.823    -306.594
  H      148.033     106.832    -309.364
  H      149.438     108.821    -309.177
  H      150.584     107.524    -306.638
  H      142.422     109.649    -308.940
  H      150.924     109.821    -305.892
  H      143.125     111.209    -308.785
  H      151.792     109.576    -307.429
  P      151.181     107.733    -310.770
  C      149.901     105.634    -311.606
  O      149.948     107.049    -311.544
  O      152.440     106.822    -311.141
  O      151.410     109.178    -311.080
  H      153.252     107.359    -311.172
  H      148.906     105.339    -311.941
  H      150.085     105.195    -310.619
  H      150.639     105.269    -312.321
  H      148.921     112.801    -304.141
  H      148.266     111.912    -305.495
  H      148.605     113.619    -305.652

 3  4  5  6  7  8  9  10  11  12  13  23  27  28  29  30  32 0
 6-311+G(2d,p)
 ****
 34  35 0
 6-311+G(2d,p)
 ****
 1  2  14  15  16  17  18  19  20  21  22  24  25  26 0
 3-21G
 ****
 31  33  36  37  38  39  40  41  42  43  44  45  46 0
 3-21G
 ****


