%nproc=1
%NoSave
%Mem=1900MB
#P OB98/GEN NMR

erre ene a

0 1
  C      330.217    -746.107     608.479
  O      329.366    -747.042     609.122
  P      328.408    -747.942     608.201
  C      326.747    -747.234     606.313
  O      327.297    -746.944     607.603
  C      325.775    -746.133     605.904
  O      326.461    -744.872     605.725
  C      325.066    -746.389     604.585
  O      323.956    -747.272     604.729
  C      324.587    -744.995     604.234
  O      323.388    -744.674     604.979
  C      325.764    -744.123     604.711
  N      327.837    -740.282     602.162
  C      327.091    -740.265     603.328
  N      326.820    -739.044     603.846
  N      326.667    -741.333     603.925
  C      327.012    -742.492     603.282
  C      327.747    -742.625     602.124
  C      328.209    -741.419     601.468
  O      328.824    -741.367     600.406
  N      327.889    -743.941     601.787
  C      327.258    -744.607     602.736
  N      326.672    -743.765     603.643
  O      327.591    -748.823     609.261
  O      329.129    -748.784     607.194
  H      323.620    -744.764     605.920
  H      327.182    -749.588     608.811
  H      328.145    -739.413     601.732
  H      327.185    -745.683     602.792
  H      325.402    -743.192     605.180
  H      324.347    -744.879     603.167
  H      327.069    -738.172     603.404
  H      325.763    -746.743     603.814
  H      326.214    -739.008     604.678
  H      325.041    -745.998     606.733
  H      326.242    -748.190     606.345
  H      327.566    -747.306     605.596
  P      323.369    -747.914     603.390
  C      322.573    -746.804     601.169
  O      322.704    -746.701     602.586
  O      322.115    -748.769     603.910
  O      324.352    -748.755     602.623
  H      321.931    -749.504     603.296
  H      321.869    -746.041     600.830
  H      322.179    -747.784     600.880
  H      323.539    -746.641     600.689
  H      330.792    -745.584     609.214
  H      329.625    -745.408     607.925
  H      330.876    -746.624     607.813

 3  4  5  6  7  8  9  10  11  12  23  26  30  31 0
 6-311+G(2d,p)
 ****
 33  35  36  37  38 0
 6-311+G(2d,p)
 ****
 1  2  13  14  15  16  17  18  19  20  21  22  24  25 0
 3-21G
 ****
 27  28  29  32  34  39  40  41  42  43  44  45  46  47  48  49 0
 3-21G
 ****


