%nproc=1
%NoSave
%Mem=1900MB
#P OB98/GEN NMR

erre ene a

0 1
  C     -130.082      85.988    -161.985
  O     -129.223      85.716    -160.891
  P     -129.877      85.432    -159.455
  C     -130.996      86.955    -157.632
  O     -130.468      86.831    -158.939
  C     -131.740      88.287    -157.484
  O     -132.990      88.213    -158.224
  C     -132.085      88.665    -156.037
  O     -131.983      90.090    -155.935
  C     -133.532      88.222    -155.909
  O     -134.217      88.887    -154.861
  C     -134.055      88.550    -157.313
  N     -135.276      87.824    -157.663
  C     -136.437      88.127    -156.960
  O     -136.492      88.954    -156.051
  N     -137.554      87.420    -157.323
  C     -137.607      86.416    -158.246
  O     -138.631      85.802    -158.519
  C     -136.339      86.107    -158.922
  C     -135.254      86.818    -158.611
  O     -128.570      85.207    -158.560
  O     -130.847      84.301    -159.451
  H     -127.826      85.773    -158.826
  H     -135.139      88.568    -154.852
  H     -138.416      87.650    -156.852
  H     -136.337      85.305    -159.651
  H     -134.308      86.607    -159.094
  H     -134.229      89.628    -157.406
  H     -133.567      87.145    -155.710
  H     -131.419      88.191    -155.310
  H     -131.132      89.073    -157.950
  H     -130.181      86.922    -156.906
  H     -131.664      86.112    -157.429
  P     -131.404      90.714    -154.568
  C     -132.363      91.060    -152.158
  O     -132.604      90.740    -153.510
  O     -131.273      92.256    -154.996
  O     -130.112      90.128    -154.107
  H     -132.071      92.598    -155.427
  H     -133.307      91.351    -151.689
  H     -131.657      91.889    -152.062
  H     -131.969      90.184    -151.638
  H     -129.497      86.155    -162.865
  H     -130.664      86.861    -161.773
  H     -130.734      85.154    -162.143

 3  4  5  6  7  8  9  10  11  12  13  24  28  29  30  31  32 0
 6-311+G(2d,p)
 ****
 33  34 0
 6-311+G(2d,p)
 ****
 1  2  14  15  16  17  18  19  20  21  22  23  25  26  27 0
 3-21G
 ****
 35  36  37  38  39  40  41  42  43  44  45 0
 3-21G
 ****


