%nproc=1
%NoSave
%Mem=1900MB
#P OB98/GEN NMR

erre ene a

0 1
  C     -875.049     730.574     422.713
  O     -874.566     729.348     423.206
  P     -875.444     728.033     423.277
  C     -873.893     726.903     421.495
  O     -875.225     727.174     421.938
  C     -873.580     725.398     421.548
  O     -874.611     724.687     420.828
  C     -872.224     725.077     420.858
  O     -871.450     724.125     421.580
  C     -872.653     724.723     419.439
  O     -871.674     723.957     418.740
  C     -874.012     724.054     419.677
  N     -874.952     722.626     414.887
  C     -874.009     722.129     415.759
  N     -873.061     721.321     415.245
  N     -873.954     722.474     417.015
  C     -874.861     723.421     417.384
  C     -875.862     723.951     416.590
  C     -875.931     723.567     415.217
  O     -876.693     724.029     414.381
  N     -876.565     724.914     417.284
  C     -875.983     724.975     418.469
  N     -874.929     724.113     418.556
  O     -876.842     728.182     423.780
  O     -874.620     727.152     424.366
  H     -872.068     723.740     417.875
  H     -875.277     726.645     424.872
  H     -874.886     722.379     413.894
  H     -876.262     725.627     419.270
  H     -873.886     722.975     419.917
  H     -872.784     725.668     418.904
  H     -873.007     721.174     414.251
  H     -871.598     725.963     420.847
  H     -872.226     721.147     415.772
  H     -873.615     725.062     422.607
  H     -873.230     727.451     422.161
  H     -873.736     727.289     420.500
  P     -869.909     723.776     421.418
  C     -868.605     724.877     423.348
  O     -869.042     725.013     422.007
  O     -869.615     723.865     419.850
  O     -869.495     722.433     421.930
  H     -868.995     723.165     419.574
  H     -868.285     725.865     423.716
  H     -867.778     724.188     423.412
  H     -869.423     724.509     423.979
  H     -874.274     731.310     422.766
  H     -875.884     730.892     423.302
  H     -875.357     730.453     421.695

 3  4  5  6  7  8  9  10  11  12  23  26  30  31 0
 6-311+G(2d,p)
 ****
 33  35  36  37  38 0
 6-311+G(2d,p)
 ****
 1  2  13  14  15  16  17  18  19  20  21  22  24  25 0
 3-21G
 ****
 27  28  29  32  34  39  40  41  42  43  44  45  46  47  48  49 0
 3-21G
 ****


