%nproc=1
%NoSave
%Mem=1900MB
#P OB98/GEN NMR

erre ene a

0 1
  C     -310.346      13.380     -63.671
  O     -311.244      14.400     -64.119
  P     -311.041      14.905     -65.630
  C     -310.248      17.267     -64.911
  O     -311.197      16.504     -65.644
  C     -310.695      18.725     -64.755
  O     -310.936      19.340     -66.055
  C     -311.984      18.893     -63.937
  O     -311.854      20.124     -63.203
  C     -313.042      19.055     -65.009
  O     -314.232      19.648     -64.480
  C     -312.268      19.905     -66.011
  N     -315.630      22.259     -68.960
  C     -315.344      22.435     -67.623
  N     -316.019      23.424     -66.982
  N     -314.469      21.714     -66.961
  C     -313.846      20.796     -67.744
  C     -314.035      20.532     -69.079
  C     -315.018      21.322     -69.790
  O     -315.308      21.207     -70.973
  N     -313.180      19.539     -69.519
  C     -312.542      19.163     -68.421
  N     -312.865      19.929     -67.336
  O     -312.362      14.386     -66.369
  O     -309.803      14.381     -66.276
  H     -314.782      19.924     -65.241
  H     -312.170      13.575     -66.873
  H     -316.324      22.836     -69.422
  H     -311.819      18.368     -68.373
  H     -312.187      20.958     -65.696
  H     -313.298      18.077     -65.437
  H     -316.664      24.047     -67.442
  H     -312.190      18.066     -63.247
  H     -315.799      23.601     -66.012
  H     -309.875      19.284     -64.276
  H     -309.278      17.243     -65.422
  H     -310.087      16.796     -63.938
  P     -312.230      20.117     -61.651
  C     -314.559      21.229     -61.906
  O     -313.242      21.333     -61.391
  O     -310.874      20.607     -60.946
  O     -312.664      18.784     -61.120
  H     -310.736      20.109     -60.118
  H     -315.225      21.847     -61.298
  H     -314.918      20.202     -61.897
  H     -314.574      21.604     -62.934
  H     -310.574      13.124     -62.657
  H     -309.340      13.739     -63.731
  H     -310.453      12.514     -64.290

 3  4  5  6  7  8  9  10  11  12  23  26  30  31 0
 6-311+G(2d,p)
 ****
 33  35  36  37  38 0
 6-311+G(2d,p)
 ****
 1  2  13  14  15  16  17  18  19  20  21  22  24  25 0
 3-21G
 ****
 27  28  29  32  34  39  40  41  42  43  44  45  46  47  48  49 0
 3-21G
 ****


