%nproc=1
%NoSave
%Mem=1900MB
#P OB98/GEN NMR

erre ene a

0 1
  C     -126.576     996.316     183.071
  O     -126.962     994.982     182.803
  H     -126.796     996.926     182.196
  H     -125.501     996.363     183.274
  H     -127.141     996.707     183.929
  P     -126.701     993.911     183.970
  C     -126.838     991.486     183.058
  O     -127.543     992.597     183.576
  C     -127.805     990.492     182.432
  O     -128.798     990.060     183.400
  C     -128.571     991.010     181.227
  O     -127.800     990.907     180.043
  C     -129.780     990.089     181.213
  O     -129.478     988.819     180.602
  C     -130.069     989.913     182.713
  N     -134.921     991.338     182.642
  C     -134.292     990.284     182.023
  N     -135.062     989.524     181.199
  N     -133.015     990.005     182.162
  C     -132.362     990.874     182.967
  C     -132.880     991.944     183.659
  C     -134.293     992.226     183.523
  O     -134.922     993.106     184.101
  N     -131.914     992.569     184.398
  C     -130.810     991.900     184.130
  N     -131.032     990.866     183.249
  O     -127.507     994.506     185.220
  O     -125.263     993.668     184.310
  H     -130.213     988.197     180.759
  H     -127.053     994.250     186.045
  H     -135.899     991.503     182.505
  H     -129.828     992.114     184.533
  H     -130.446     988.910     182.957
  H     -130.614     990.508     180.649
  H     -135.918     989.874     180.800
  H     -128.907     992.040     181.397
  H     -134.606     988.752     180.723
  H     -127.222     989.590     182.158
  H     -126.283     990.998     183.867
  H     -126.125     991.844     182.296
  P     -127.427     992.273     179.275
  C     -127.294     991.290     176.868
  O     -126.597     991.840     177.970
  O     -126.314     992.942     180.215
  O     -128.585     993.197     179.033
  H     -126.218     993.890     179.995
  H     -126.600     991.057     176.087
  H     -128.010     991.999     176.509
  H     -127.799     990.398     177.175

 6  7  8  9  10  11  12  13  14  15  26  29  33  34 0
 6-311+G(2d,p)
 ****
 36  38  39  40  41 0
 6-311+G(2d,p)
 ****
 1  2  3  4  5  16  17  18  19  20  21  22  23  24  25 0
 3-21G
 ****
 27  28  30  31  32  35  37  42  43  44  45  46  47 0
 3-21G
 ****
 48  49 0
 3-21G
 ****


