%nproc=1
%NoSave
%Mem=1900MB
#P OB98/GEN NMR

erre ene a

0 1
  C     -294.010    -609.973    -620.481
  O     -293.400    -610.483    -619.298
  P     -293.470    -609.566    -617.977
  C     -295.716    -610.542    -617.070
  O     -295.033    -609.416    -617.601
  C     -296.238    -610.264    -615.663
  O     -297.090    -609.068    -615.713
  C     -297.066    -611.405    -615.044
  O     -296.800    -611.398    -613.643
  C     -298.492    -610.937    -615.332
  O     -299.489    -611.596    -614.555
  C     -298.349    -609.441    -615.099
  N     -303.120    -607.708    -614.366
  C     -302.262    -608.403    -613.562
  N     -301.012    -608.820    -613.826
  C     -300.628    -608.448    -615.064
  C     -301.392    -607.765    -615.994
  C     -302.690    -607.385    -615.607
  N     -303.556    -606.676    -616.437
  N     -300.679    -607.581    -617.171
  C     -299.512    -608.154    -616.947
  N     -299.440    -608.668    -615.675
  O     -293.079    -608.115    -618.518
  O     -292.583    -610.009    -616.851
  H     -300.366    -611.184    -614.709
  H     -292.522    -607.637    -617.875
  H     -302.657    -608.652    -612.576
  H     -298.700    -608.230    -617.671
  H     -298.294    -609.188    -614.032
  H     -298.727    -611.152    -616.388
  H     -296.823    -612.387    -615.455
  H     -295.378    -610.027    -615.019
  H     -295.022    -611.404    -617.018
  H     -304.529    -606.631    -616.142
  H     -303.312    -606.624    -617.426
  H     -296.532    -610.824    -617.754
  P     -297.118    -612.722    -612.787
  C     -294.864    -613.772    -613.501
  O     -296.272    -613.883    -613.544
  O     -298.611    -613.051    -613.265
  O     -296.936    -612.608    -611.314
  H     -298.683    -613.055    -614.239
  H     -294.434    -614.657    -613.964
  H     -294.530    -613.708    -612.458
  H     -294.536    -612.889    -614.058
  H     -293.890    -610.678    -621.277
  H     -293.545    -609.048    -620.752
  H     -295.052    -609.810    -620.303

 3  4  5  6  7  8  9  10  11  12  22  25  29  30  31  32 0
 6-311+G(2d,p)
 ****
 33  36  37 0
 6-311+G(2d,p)
 ****
 1  2  13  14  15  16  17  18  19  20  21  23  24  26 0
 3-21G
 ****
 27  28  34  35  38  39  40  41  42  43  44  45  46  47  48 0
 3-21G
 ****


