%nproc=1
%NoSave
%Mem=1900MB
#P OB98/GEN NMR

erre ene a

0 1
  C     -228.868    -470.443    -213.338
  O     -228.080    -470.379    -214.518
  P     -227.739    -471.746    -215.286
  C     -225.505    -472.996    -215.885
  O     -226.143    -471.918    -215.220
  C     -224.052    -473.121    -215.412
  O     -223.281    -472.004    -215.945
  C     -223.873    -473.116    -213.883
  O     -222.779    -473.995    -213.583
  C     -223.493    -471.675    -213.595
  O     -222.814    -471.528    -212.357
  C     -222.642    -471.350    -214.830
  N     -222.511    -469.914    -215.085
  C     -221.515    -469.218    -214.395
  O     -220.762    -469.743    -213.570
  N     -221.432    -467.878    -214.660
  C     -222.266    -467.164    -215.477
  O     -222.153    -465.960    -215.666
  C     -223.324    -467.939    -216.145
  C     -223.392    -469.257    -215.929
  O     -228.027    -471.327    -216.801
  O     -228.519    -472.922    -214.795
  H     -227.785    -470.405    -216.995
  H     -223.451    -471.701    -211.643
  H     -220.695    -467.358    -214.197
  H     -224.009    -467.407    -216.785
  H     -224.161    -469.855    -216.403
  H     -221.643    -471.799    -214.723
  H     -224.400    -471.056    -213.563
  H     -224.774    -473.445    -213.356
  H     -223.629    -474.043    -215.847
  H     -225.516    -472.811    -216.965
  H     -226.059    -473.915    -215.695
  P     -222.663    -474.568    -212.080
  C     -221.035    -473.790    -210.179
  O     -221.952    -473.438    -211.186
  O     -221.495    -475.652    -212.281
  O     -223.922    -475.170    -211.535
  H     -220.731    -475.299    -212.767
  H     -220.430    -472.909    -209.931
  H     -220.369    -474.595    -210.499
  H     -221.583    -474.100    -209.279
  H     -229.006    -469.456    -212.947
  H     -228.371    -471.049    -212.610
  H     -229.821    -470.872    -213.568

 3  4  5  6  7  8  9  10  11  12  13  24  28  29  30  31  32 0
 6-311+G(2d,p)
 ****
 33  34 0
 6-311+G(2d,p)
 ****
 1  2  14  15  16  17  18  19  20  21  22  23  25  26  27 0
 3-21G
 ****
 35  36  37  38  39  40  41  42  43  44  45 0
 3-21G
 ****


