%nproc=1
%NoSave
%Mem=1900MB
#P OB98/GEN NMR

erre ene a

0 1
  C      363.256     106.033     115.969
  O      364.218     106.905     116.533
  H      363.768     105.307     115.331
  H      362.543     106.591     115.357
  H      362.724     105.491     116.755
  P      363.706     108.068     117.509
  C      363.655     106.933     119.829
  O      362.907     107.335     118.685
  C      363.117     107.626     121.076
  O      363.219     109.059     120.942
  C      361.647     107.326     121.372
  O      361.518     106.072     122.021
  C      361.296     108.505     122.263
  O      361.829     108.288     123.585
  C      362.051     109.653     121.567
  N      361.297     114.104     119.254
  C      362.135     113.777     120.309
  N      362.834     114.799     120.849
  N      362.256     112.571     120.801
  C      361.437     111.671     120.203
  C      360.559     111.878     119.167
  C      360.477     113.199     118.592
  O      359.760     113.524     117.651
  N      359.852     110.731     118.877
  C      360.334     109.836     119.712
  N      361.289     110.352     120.547
  O      362.945     109.187     116.865
  O      365.038     108.581     118.232
  H      361.496     107.422     123.886
  H      365.431     109.332     117.753
  H      361.239     115.052     118.934
  H      360.029     108.789     119.747
  H      362.409     110.406     122.278
  H      360.224     108.663     122.365
  H      362.571     115.765     120.700
  H      361.030     107.383     120.464
  H      363.416     114.595     121.650
  H      363.753     107.337     121.923
  H      364.697     107.209     119.656
  H      363.594     105.845     119.958
  P      360.231     105.135     121.772
  C      361.510     103.765     119.989
  O      360.402     104.607     120.267
  O      358.923     105.780     122.065
  O      360.526     103.824     122.630
  H      360.199     103.884     123.567
  H      361.499     103.491     118.955
  H      361.448     102.883     120.592
  H      362.418     104.286     120.210

 6  7  8  9  10  11  12  13  14  15  26  29  33  34 0
 6-311+G(2d,p)
 ****
 36  38  39  40  41 0
 6-311+G(2d,p)
 ****
 1  2  3  4  5  16  17  18  19  20  21  22  23  24  25 0
 3-21G
 ****
 27  28  30  31  32  35  37  42  43  44  45  46  47 0
 3-21G
 ****
 48  49 0
 3-21G
 ****


