%nproc=1
%NoSave
%Mem=1900MB
#P OB98/GEN NMR

erre ene a

0 1
  C     -560.434     212.912    -112.215
  O     -559.116     213.172    -111.784
  H     -560.976     213.861    -112.290
  H     -560.949     212.273    -111.489
  H     -560.430     212.429    -113.194
  P     -558.139     211.904    -111.645
  C     -557.588     210.202    -109.755
  O     -558.376     211.314    -110.173
  C     -557.531     210.152    -108.235
  O     -556.841     211.324    -107.738
  C     -558.895     210.161    -107.555
  O     -559.507     208.882    -107.575
  C     -558.527     210.635    -106.155
  O     -558.064     209.555    -105.337
  C     -557.376     211.615    -106.425
  N     -559.487     215.153    -103.421
  C     -559.113     213.874    -103.189
  N     -558.540     213.000    -104.044
  C     -558.347     213.572    -105.244
  C     -558.681     214.859    -105.632
  C     -559.277     215.675    -104.652
  N     -559.694     216.962    -104.899
  N     -558.371     215.067    -106.960
  C     -557.850     213.925    -107.367
  N     -557.811     212.996    -106.364
  O     -556.689     212.579    -111.555
  O     -558.228     210.911    -112.755
  H     -557.937     209.919    -104.441
  H     -556.282     212.603    -112.443
  H     -559.304     213.501    -102.186
  H     -557.495     213.719    -108.370
  H     -556.557     211.501    -105.710
  H     -559.386     211.086    -105.649
  H     -559.547     210.909    -108.025
  H     -556.954     209.269    -107.933
  H     -556.573     210.315    -110.151
  H     -558.031     209.283    -110.160
  H     -560.133     217.481    -104.157
  H     -559.635     217.320    -105.841
  P     -561.071     208.776    -107.260
  C     -562.396     207.572    -105.372
  O     -561.230     208.290    -105.736
  O     -561.538     207.512    -108.115
  O     -561.862     210.006    -107.597
  H     -561.966     207.798    -108.940
  H     -562.351     207.322    -104.333
  H     -562.458     206.675    -105.952
  H     -563.259     208.177    -105.557

 6  7  8  9  10  11  12  13  14  15  25  28  32  33  34  35 0
 6-311+G(2d,p)
 ****
 36  37  40 0
 6-311+G(2d,p)
 ****
 1  2  3  4  5  16  17  18  19  20  21  22  23  24 0
 3-21G
 ****
 26  27  29  30  31  38  39 41  42  43  44  45  46  47  48 0
 3-21G
 ****


