%nproc=1
%NoSave
%Mem=1900MB
#P OB98/GEN NMR

erre ene a

0 1
  C      272.698    -407.292     176.455
  O      273.462    -406.577     175.507
  H      273.358    -407.621     177.260
  H      272.244    -408.171     175.993
  H      271.920    -406.651     176.882
  P      272.721    -405.982     174.214
  C      274.258    -403.899     174.121
  O      273.850    -405.100     173.483
  C      275.199    -403.113     173.212
  O      276.525    -403.681     173.209
  C      274.796    -403.080     171.743
  O      273.685    -402.238     171.469
  C      276.082    -402.561     171.126
  O      276.198    -401.148     171.372
  C      277.136    -403.360     171.927
  N      277.560    -404.579     171.240
  C      278.493    -404.424     170.205
  O      278.910    -403.307     169.898
  N      278.905    -405.537     169.511
  C      278.411    -406.701     169.809
  N      278.849    -407.771     169.082
  C      277.414    -406.906     170.879
  C      277.040    -405.823     171.544
  O      271.423    -405.284     174.465
  O      272.593    -407.230     173.218
  H      275.590    -400.702     170.756
  H      272.128    -406.918     172.402
  H      277.014    -407.893     171.065
  H      276.304    -405.888     172.340
  H      278.020    -402.743     172.134
  H      276.133    -402.711     170.047
  H      274.614    -404.096     171.364
  H      275.286    -402.098     173.624
  H      279.533    -407.598     168.357
  H      274.749    -404.160     175.061
  H      278.467    -408.701     169.196
  H      273.382    -403.273     174.334
  P      272.462    -402.889     170.654
  C      270.389    -402.373     172.164
  O      271.164    -402.022     171.027
  O      272.229    -404.282     171.400
  O      272.694    -403.049     169.183
  H      272.656    -405.013     170.911
  H      269.569    -401.693     172.260
  H      270.999    -402.322     173.041
  H      270.015    -403.369     172.047

 6  7  8  9  10  11  12  13  14  15  16  26  30  31  32  33  35 0
 6-311+G(2d,p)
 ****
 37  38 0
 6-311+G(2d,p)
 ****
 1  2  3  4  5  17  18  19  20  21  22  23  24  25 0
 3-21G
 ****
 27  28  29  34  36  39  40  41  42  43  44  45  46 0
 3-21G
 ****


