%nproc=1
%NoSave
%Mem=1900MB
#P OB98/GEN NMR

erre ene a

0 1
  C     -615.294    1037.004    -186.457
  O     -616.491    1037.778    -186.362
  P     -616.544    1038.914    -185.210
  C     -617.815    1037.197    -183.722
  O     -616.758    1038.163    -183.816
  C     -618.314    1037.093    -182.287
  O     -619.048    1038.275    -181.885
  C     -619.281    1035.926    -182.040
  O     -618.608    1034.690    -181.898
  C     -619.930    1036.357    -180.746
  O     -619.097    1035.982    -179.627
  C     -619.985    1037.892    -180.876
  N     -623.424    1041.559    -180.225
  C     -622.174    1041.411    -179.649
  N     -621.789    1042.376    -178.799
  N     -621.391    1040.397    -179.889
  C     -621.915    1039.515    -180.780
  C     -623.135    1039.555    -181.411
  C     -624.001    1040.670    -181.126
  O     -625.133    1040.842    -181.585
  N     -623.294    1038.487    -182.259
  C     -622.188    1037.812    -182.142
  N     -621.297    1038.387    -181.262
  O     -617.935    1039.634    -185.467
  O     -615.389    1039.869    -185.263
  H     -618.300    1036.537    -179.679
  H     -617.901    1040.564    -185.159
  H     -623.999    1042.375    -180.010
  H     -621.939    1036.903    -182.687
  H     -619.694    1038.390    -179.950
  H     -620.904    1035.883    -180.573
  H     -622.300    1043.244    -178.635
  H     -620.041    1035.885    -182.848
  H     -620.852    1042.312    -178.402
  H     -617.448    1036.975    -181.618
  H     -617.445    1036.212    -184.056
  H     -618.611    1037.477    -184.415
  P     -618.449    1033.780    -183.215
  C     -620.792    1032.611    -183.214
  O     -619.947    1033.606    -183.783
  O     -618.132    1032.341    -182.594
  O     -617.422    1034.228    -184.172
  H     -617.601    1031.804    -183.248
  H     -620.706    1032.589    -182.134
  H     -620.529    1031.643    -183.653
  H     -621.813    1032.844    -183.496
  H     -615.390    1036.295    -187.253
  H     -615.130    1036.486    -185.535
  H     -614.465    1037.651    -186.654

 3  4  5  6  7  8  9  10  11  12  23  26  30  31  33  0
 6-311+G(2d,p)
 ****
 35  36  37  38 0
 6-311+G(2d,p)
 ****
 1  2  13  14  15  16  17  18  19  20  21  22  24  25  27  28  29 0
 3-21G
 ****
 32  34  39  40  41  42  43  44  45  46  47  48  49 0
 3-21G
 ****


