%nproc=1
%NoSave
%Mem=1900MB
#P OB98/GEN NMR

erre ene a

0 1
  C       25.949     148.960      56.140
  O       24.764     149.435      55.532
  P       24.712     149.730      53.961
  C       23.854     147.407      53.311
  O       24.927     148.331      53.198
  C       23.549     146.743      51.969
  O       23.246     147.773      50.989
  C       24.695     145.893      51.400
  O       24.089     144.802      50.696
  C       25.349     146.835      50.404
  O       26.121     146.156      49.420
  C       24.118     147.553      49.859
  N       23.872     150.282      45.545
  C       23.504     149.015      45.829
  N       23.626     148.351      46.997
  C       24.191     149.132      47.929
  C       24.651     150.431      47.781
  C       24.457     151.022      46.519
  N       24.797     152.325      46.221
  N       25.228     150.878      48.954
  C       25.117     149.868      49.793
  N       24.442     148.816      49.235
  O       25.596     150.835      53.491
  O       23.173     150.062      53.679
  H       26.905     145.771      49.856
  H       23.063     151.021      53.530
  H       23.044     148.463      45.015
  H       25.507     149.843      50.799
  H       23.575     146.946      49.126
  H       26.012     147.529      50.935
  H       25.394     145.526      52.154
  H       22.644     146.133      52.085
  H       22.969     147.953      53.652
  H       24.492     152.685      45.331
  H       24.980     152.971      46.987
  H       24.099     146.644      54.060
  P       24.763     143.347      50.744
  C       23.035     142.606      52.479
  O       24.414     142.730      52.178
  O       26.204     143.300      50.361
  O       23.856     142.482      49.744
  H       24.336     141.675      49.487
  H       22.646     143.574      52.808
  H       22.911     141.879      53.286
  H       22.468     142.270      51.605
  H       25.783     148.825      57.188
  H       26.735     149.670      55.992
  H       26.226     148.025      55.700

 3  4  5  6  7  8  9  10  11  12  22  25  29  30  31  32 0
 6-311+G(2d,p)
 ****
 33  36  37 0
 6-311+G(2d,p)
 ****
 1  2  13  14  15  16  17  18  19  20  21  23  24  26 0
 3-21G
 ****
 27  28  34  35  38  39  40  41  42  43  44  45  46  47  48 0
 3-21G
 ****


