%nproc=1
%NoSave
%Mem=1900MB
#P OB98/GEN NMR

erre ene a

0 1
  C      105.311       8.246      37.689
  O      106.676       8.622      37.719
  P      107.762       7.507      37.321
  C      108.194       7.007      39.834
  O      107.840       6.486      38.557
  C      109.226       6.119      40.531
  O      108.611       4.845      40.845
  C      110.482       5.848      39.699
  O      111.600       5.821      40.588
  C      110.250       4.449      39.154
  O      111.477       3.797      38.830
  C      109.460       3.806      40.306
  N      108.678       2.656      39.863
  C      109.368       1.452      39.690
  O      110.591       1.417      39.832
  N      108.663       0.333      39.311
  C      107.403       0.437      39.023
  N      106.752      -0.701      38.654
  C      106.666       1.715      39.072
  C      107.350       2.767      39.518
  O      109.147       8.303      37.412
  O      107.556       6.885      35.978
  H      111.285       2.846      38.681
  H      109.791       7.963      36.761
  H      105.623       1.751      38.787
  H      106.883       3.740      39.609
  H      110.138       3.480      41.107
  H      109.634       4.499      38.248
  H      110.646       6.599      38.920
  H      109.498       6.592      41.485
  H      107.283      -1.562      38.613
  H      107.299       7.048      40.463
  H      105.768      -0.720      38.411
  H      108.575       8.028      39.719
  P      113.026       6.265      40.006
  C      113.626       3.788      39.690
  O      113.491       5.052      39.066
  O      113.973       6.060      41.286
  O      113.165       7.644      39.450
  H      114.876       6.362      41.080
  H      113.809       3.034      38.920
  H      112.712       3.525      40.228
  H      114.476       3.801      40.377
  H      104.705       9.080      37.974
  H      105.149       7.437      38.371
  H      105.048       7.936      36.699

 3  4  5  6  7  8  9  10  11  12  13  21  23  27  28  29  30  32 0
 6-311+G(2d,p)
 ****
 34  35 0
 6-311+G(2d,p)
 ****
 1  2  14  15  16  17  18  19  20  22  24  25  26 0
 3-21G
 ****
 31  33  36  37  38  39  40  41  42  43  44  45  46 0
 3-21G
 ****


