%nproc=1
%NoSave
%Mem=1900MB
#P OB98/GEN NMR

erre ene a

0 1
  C     1465.595      20.466     750.752
  O     1467.014      20.360     750.538
  P     1467.671      21.462     749.580
  C     1467.885      20.092     747.402
  O     1467.237      21.154     748.071
  C     1468.057      20.369     745.893
  O     1468.983      19.423     745.291
  C     1466.722      20.249     745.106
  O     1466.756      21.209     744.044
  C     1466.800      18.852     744.510
  O     1465.904      18.707     743.380
  C     1468.292      18.773     744.183
  N     1471.484      15.720     741.579
  C     1471.227      17.068     741.530
  N     1470.357      17.801     742.248
  C     1469.687      17.027     743.133
  C     1469.823      15.632     743.300
  C     1470.757      15.009     742.459
  N     1470.974      13.639     742.514
  N     1468.943      15.189     744.274
  C     1468.313      16.270     744.683
  N     1468.755      17.390     744.023
  O     1469.231      21.099     749.589
  O     1467.454      22.889     749.999
  H     1465.806      17.735     743.231
  H     1469.718      21.753     750.138
  H     1471.847      17.617     740.803
  H     1467.514      16.293     745.419
  H     1468.549      19.301     743.246
  H     1466.536      18.116     745.269
  H     1465.828      20.403     745.699
  H     1468.462      21.355     745.766
  H     1467.299      19.145     747.508
  H     1471.646      13.255     741.875
  H     1470.425      13.066     743.120
  H     1468.869      19.874     747.872
  P     1465.842      22.511     744.186
  C     1463.633      21.360     744.940
  O     1464.749      22.130     745.310
  O     1464.992      22.549     742.864
  O     1466.592      23.782     744.412
  H     1464.711      23.452     742.683
  H     1463.433      20.627     745.730
  H     1463.783      20.812     744.003
  H     1462.751      22.010     744.848
  H     1465.273      19.681     751.404
  H     1465.086      20.382     749.815
  H     1465.371      21.413     751.196

 3  4  5  6  7  8  9  10  11  12  22  25  29  30  31  32 0
 6-311+G(2d,p)
 ****
 33  36  37 0
 6-311+G(2d,p)
 ****
 1  2  13  14  15  16  17  18  19  20  21  23  24  26 0
 3-21G
 ****
 27  28  34  35  38  39  40  41  42  43  44  45  46  47  48 0
 3-21G
 ****


