%nproc=1
%NoSave
%Mem=1900MB
#P OB98/GEN NMR

erre ene a

0 1
  C      -91.479      18.821    -298.095
  O      -91.772      17.496    -297.701
  H      -92.407      19.389    -298.188
  H      -90.857      19.287    -297.326
  H      -90.936      18.834    -299.044
  P      -92.415      16.527    -298.805
  C      -90.226      15.131    -298.798
  O      -91.184      15.837    -299.574
  C      -89.240      14.398    -299.704
  O      -88.826      15.304    -300.767
  C      -87.973      13.902    -298.991
  O      -87.621      12.623    -299.526
  C      -86.922      14.916    -299.402
  O      -85.600      14.391    -299.355
  C      -87.389      15.274    -300.810
  N      -84.776      17.617    -304.489
  C      -85.404      16.423    -304.449
  N      -86.127      15.896    -303.441
  C      -86.227      16.767    -302.421
  C      -85.649      18.019    -302.319
  C      -84.874      18.438    -303.415
  N      -84.174      19.622    -303.439
  N      -85.935      18.584    -301.092
  C      -86.650      17.675    -300.456
  N      -86.850      16.559    -301.218
  O      -92.994      17.566    -299.878
  O      -93.467      15.593    -298.309
  H      -85.528      13.658    -299.997
  H      -93.899      17.826    -299.628
  H      -85.303      15.806    -305.337
  H      -87.017      17.761    -299.443
  H      -87.080      14.533    -301.559
  H      -86.972      15.787    -298.738
  H      -88.079      13.830    -297.901
  H      -89.764      13.562    -300.185
  H      -90.746      14.397    -298.173
  H      -83.560      19.788    -304.222
  H      -84.149      20.191    -302.606
  H      -89.697      15.835    -298.150
  P      -88.150      11.327    -298.747
  C      -89.930      10.742    -300.557
  O      -89.662      11.046    -299.191
  O      -88.296      11.838    -297.238
  O      -87.235      10.148    -298.842
  H      -88.106      11.114    -296.615
  H      -90.980      10.582    -300.687
  H      -89.397       9.857    -300.837
  H      -89.614      11.558    -301.173

 6  7  8  9  10  11  12  13  14  15  25  28  32  33  34  35 0
 6-311+G(2d,p)
 ****
 36  39  40 0
 6-311+G(2d,p)
 ****
 1  2  3  4  5  16  17  18  19  20  21  22  23  24 0
 3-21G
 ****
 26  27  29  30  31  37  38  41  42  43  44  45  46  47 0
 3-21G
 ****
 48 0
 3-21G
 ****


