%nproc=1
%NoSave
%Mem=1900MB
#P OB98/GEN NMR

erre ene a

0 1
  C      -35.027    -426.421    -303.166
  O      -34.056    -425.649    -303.882
  P      -34.229    -425.544    -305.474
  C      -35.441    -423.220    -305.424
  O      -34.298    -423.973    -305.797
  C      -35.780    -422.206    -306.520
  O      -37.130    -421.711    -306.359
  C      -34.890    -420.971    -306.518
  O      -33.602    -421.258    -307.037
  C      -35.727    -420.015    -307.366
  O      -35.542    -420.298    -308.760
  C      -37.159    -420.385    -306.938
  N      -37.752    -419.416    -306.022
  C      -37.962    -418.142    -306.532
  O      -37.655    -417.819    -307.679
  N      -38.527    -417.236    -305.676
  C      -38.861    -417.470    -304.374
  O      -39.374    -416.619    -303.656
  C      -38.574    -418.823    -303.872
  C      -38.039    -419.721    -304.703
  O      -35.735    -426.052    -305.657
  O      -33.203    -426.320    -306.230
  H      -36.318    -425.783    -304.923
  H      -35.664    -421.262    -308.866
  H      -38.700    -416.308    -306.032
  H      -38.806    -419.035    -302.837
  H      -37.816    -420.723    -304.349
  H      -37.813    -420.456    -307.818
  H      -35.458    -418.968    -307.205
  H      -34.802    -420.578    -305.497
  H      -35.713    -422.718    -307.487
  H      -35.246    -422.683    -304.488
  H      -36.275    -423.904    -305.250
  P      -32.358    -421.054    -306.039
  C      -31.380    -423.389    -305.386
  O      -31.377    -422.303    -306.276
  O      -33.043    -421.367    -304.623
  O      -31.723    -419.705    -306.136
  H      -33.619    -422.148    -304.647
  H      -30.932    -424.257    -305.882
  H      -32.396    -423.651    -305.073
  H      -30.776    -423.146    -304.503
  H      -34.794    -426.407    -302.122
  H      -35.013    -427.430    -303.521
  H      -36.000    -426.002    -303.320

 3  4  5  6  7  8  9  10  11  12  13  24  28  29  30  31  32 0
 6-311+G(2d,p)
 ****
 33  34 0
 6-311+G(2d,p)
 ****
 1  2  14  15  16  17  18  19  20  21  22  23  25  26  27 0
 3-21G
 ****
 35  36  37  38  39  40  41  42  43  44  45 0
 3-21G
 ****


