%nproc=1
%NoSave
%Mem=1900MB
#P OB98/GEN NMR

erre ene a

0 1
  C      -89.289      52.549      57.001
  O      -90.678      52.488      56.724
  P      -91.250      51.147      56.048
  C      -92.202      50.556      58.401
  O      -91.517      50.109      57.242
  C      -93.384      49.637      58.714
  O      -93.930      50.011      60.006
  C      -94.532      49.698      57.702
  O      -95.120      48.392      57.657
  C      -95.503      50.671      58.344
  O      -96.831      50.529      57.850
  C      -95.329      50.314      59.816
  N      -99.138      53.338      61.197
  C      -99.077      52.398      60.184
  N     -100.213      52.199      59.483
  N      -98.002      51.716      59.889
  C      -96.950      52.012      60.687
  C      -96.875      52.946      61.693
  C      -98.081      53.666      62.034
  O      -98.204      54.444      62.977
  N      -95.612      53.023      62.216
  C      -94.946      52.079      61.583
  N      -95.726      51.408      60.680
  O      -89.969      50.548      55.305
  O      -92.416      51.332      55.128
  H      -97.158      49.646      58.118
  H      -89.939      50.833      54.370
  H     -100.001      53.819      61.390
  H      -93.908      51.833      61.739
  H      -95.913      49.432      60.107
  H      -95.179      51.700      58.147
  H     -101.085      52.666      59.676
  H      -94.219      50.010      56.702
  H     -100.205      51.492      58.757
  H      -93.007      48.611      58.804
  H      -92.585      51.565      58.217
  H      -91.507      50.599      59.245
  P      -95.703      47.880      56.254
  C      -93.372      46.900      55.697
  O      -94.466      47.680      55.260
  O      -96.432      49.186      55.675
  O      -96.660      46.738      56.352
  H      -97.203      48.920      55.141
  H      -92.831      46.531      54.822
  H      -93.701      46.043      56.294
  H      -92.699      47.519      56.293
  H      -89.055      53.493      57.446
  H      -88.738      52.438      56.090
  H      -89.025      51.761      57.675

 3  4  5  6  7  8  9  10  11  12  23  26  30  31 0
 6-311+G(2d,p)
 ****
 33  35  36  37  38 0
 6-311+G(2d,p)
 ****
 1  2  13  14  15  16  17  18  19  20  21  22  24  25 0
 3-21G
 ****
 27  28  29  32  34  39  40  41  42  43  44  45  46  47  48  49 0
 3-21G
 ****


