%nproc=1
%NoSave
%Mem=1900MB
#P OB98/GEN NMR

erre ene a

0 1
  C       54.600    -168.334     106.426
  O       53.570    -167.439     106.036
  P       52.363    -168.024     105.153
  C       53.501    -166.581     103.303
  O       52.302    -167.138     103.814
  C       53.451    -166.510     101.774
  O       54.708    -165.964     101.294
  C       53.249    -167.861     101.074
  O       52.503    -167.605      99.880
  C       54.665    -168.276     100.715
  O       54.705    -169.230      99.658
  C       55.276    -166.921     100.372
  N       59.649    -165.467      98.284
  C       58.356    -165.358      97.801
  N       58.211    -164.714      96.620
  N       57.306    -165.828      98.417
  C       57.608    -166.432      99.593
  C       58.846    -166.638     100.157
  C       59.996    -166.076      99.484
  O       61.143    -166.073      99.915
  N       58.757    -167.365     101.313
  C       57.462    -167.532     101.490
  N       56.721    -166.941     100.498
  O       51.069    -167.566     105.970
  O       52.396    -169.499     104.903
  H       54.388    -168.789      98.843
  H       50.771    -168.270     106.581
  H       60.415    -165.065      97.774
  H       57.002    -168.057     102.312
  H       55.036    -166.594      99.352
  H       55.155    -168.721     101.589
  H       58.972    -164.299      96.107
  H       52.736    -168.602     101.694
  H       57.271    -164.592      96.258
  H       52.661    -165.810     101.488
  H       54.341    -167.220     103.594
  H       53.655    -165.585     103.733
  P       51.001    -168.164      99.797
  C       51.909    -170.512      99.181
  O       51.020    -169.459      98.860
  O       50.263    -167.067      98.892
  O       50.318    -168.316     101.117
  H       49.330    -166.991      99.166
  H       51.538    -171.438      98.732
  H       51.991    -170.655     100.265
  H       52.898    -170.292      98.770
  H       55.330    -167.807     107.005
  H       55.065    -168.744     105.554
  H       54.182    -169.125     107.013

 3  4  5  6  7  8  9  10  11  12  23  26  30  31 0
 6-311+G(2d,p)
 ****
 33  35  36  37  38 0
 6-311+G(2d,p)
 ****
 1  2  13  14  15  16  17  18  19  20  21  22  24  25 0
 3-21G
 ****
 27  28  29  32  34  39  40  41  42  43  44  45  46  47  48  49 0
 3-21G
 ****


