%nproc=1
%NoSave
%Mem=1900MB
#P OB98/GEN NMR

erre ene a

0 1
  C     -259.393     -69.478      51.586
  O     -260.730     -69.007      51.453
  P     -261.628     -68.724      52.750
  C     -262.923     -66.744      51.738
  O     -263.003     -68.081      52.224
  C     -264.319     -66.140      51.587
  O     -264.984     -66.776      50.463
  C     -265.202     -66.336      52.815
  O     -266.029     -65.181      52.982
  C     -266.096     -67.509      52.453
  O     -267.337     -67.465      53.180
  C     -266.229     -67.332      50.937
  N     -269.725     -70.302      48.620
  C     -269.817     -69.076      49.179
  N     -268.856     -68.359      49.796
  C     -267.679     -69.009      49.764
  C     -267.429     -70.264      49.223
  C     -268.521     -70.927      48.632
  N     -268.423     -72.172      48.052
  N     -266.105     -70.617      49.399
  C     -265.565     -69.587      50.015
  N     -266.471     -68.587      50.244
  O     -260.952     -67.945      53.832
  O     -262.076     -70.174      53.252
  H     -267.114     -67.387      54.128
  H     -262.080     -70.210      54.230
  H     -270.802     -68.608      49.121
  H     -264.528     -69.518      50.324
  H     -267.037     -66.632      50.677
  H     -265.592     -68.450      52.703
  H     -264.624     -66.518      53.731
  H     -264.216     -65.071      51.346
  H     -262.429     -66.764      50.761
  H     -269.228     -72.518      47.547
  H     -267.498     -72.559      47.908
  H     -262.308     -66.141      52.422
  P     -266.138     -64.599      54.483
  C     -266.010     -62.104      53.751
  O     -266.784     -63.142      54.310
  O     -264.833     -64.688      55.215
  O     -267.311     -65.511      55.084
  H     -267.903     -65.857      54.373
  H     -266.607     -61.182      53.752
  H     -265.749     -62.343      52.716
  H     -265.099     -61.942      54.337
  H     -258.962     -69.606      50.615
  H     -259.395     -70.416      52.102
  H     -258.818     -68.767      52.141

 3  4  5  6  7  8  9  10  11  12  22  25  29  30  31  32 0
 6-311+G(2d,p)
 ****
 33  36  37 0
 6-311+G(2d,p)
 ****
 1  2  13  14  15  16  17  18  19  20  21  23  24  26 0
 3-21G
 ****
 27  28  34  35  38  39  40  41  42  43  44  45  46  47  48 0
 3-21G
 ****


