%nproc=1
%NoSave
%Mem=1900MB
#P OB98/GEN NMR

erre ene a

0 1
  C      645.756     242.823    -229.695
  O      644.743     241.845    -229.574
  H      646.493     242.672    -228.904
  H      645.318     243.825    -229.592
  H      646.254     242.730    -230.667
  P      643.646     241.776    -230.739
  C      641.161     242.432    -230.193
  O      642.511     242.860    -230.387
  C      640.921     242.121    -228.721
  O      641.570     243.078    -227.862
  C      639.459     242.195    -228.301
  O      638.683     241.129    -228.804
  C      639.602     242.185    -226.782
  O      639.827     240.857    -226.294
  C      640.856     243.063    -226.587
  N      640.541     244.406    -226.128
  C      639.911     244.506    -224.885
  O      639.674     243.487    -224.230
  N      639.546     245.746    -224.419
  C      639.813     246.800    -225.125
  N      639.415     248.002    -224.617
  C      640.502     246.760    -226.431
  C      640.822     245.542    -226.878
  O      642.917     240.382    -230.459
  O      644.184     241.930    -232.127
  H      639.863     240.920    -225.322
  H      642.589     240.287    -229.546
  H      640.698     247.661    -226.987
  H      641.319     245.421    -227.825
  H      641.540     242.612    -225.855
  H      638.697     242.547    -226.284
  H      639.032     243.170    -228.582
  H      641.350     241.126    -228.505
  H      638.930     247.994    -223.734
  H      640.938     241.560    -230.812
  H      639.527     248.882    -225.085
  H      640.507     243.250    -230.508
  P      637.083     241.175    -228.731
  C      636.086     239.502    -227.037
  O      636.693     240.776    -227.221
  O      636.378     240.372    -229.787
  O      636.754     242.736    -228.770
  H      637.146     243.259    -228.040
  H      635.875     239.354    -225.998
  H      636.752     238.737    -227.379
  H      635.175     239.457    -227.596

 6  7  8  9  10  11  12  13  14  15  16  26  30  31  32  33  35 0
 6-311+G(2d,p)
 ****
 37  38 0
 6-311+G(2d,p)
 ****
 1  2  3  4  5  17  18  19  20  21  22  23  24  25 0
 3-21G
 ****
 27  28  29  34  36  39  40  41  42  43  44  45  46 0
 3-21G
 ****


