%nproc=1
%NoSave
%Mem=1900MB
#P OB98/GEN NMR

erre ene a

0 1
  C      -75.428     154.153     150.500
  O      -74.142     153.612     150.273
  H      -76.111     153.336     150.746
  H      -75.793     154.651     149.598
  H      -75.412     154.858     151.335
  P      -72.913     154.615     150.042
  C      -72.023     154.252     147.649
  O      -72.904     154.991     148.485
  C      -71.218     155.209     146.771
  O      -72.107     156.029     145.982
  C      -70.349     156.181     147.558
  O      -69.187     155.545     148.053
  C      -70.092     157.249     146.508
  O      -69.038     156.851     145.617
  C      -71.448     157.299     145.772
  N      -72.292     158.409     146.211
  C      -71.948     159.673     145.742
  O      -70.972     159.884     145.024
  N      -72.751     160.703     146.155
  C      -73.770     160.609     147.058
  O      -74.403     161.579     147.464
  C      -74.074     159.255     147.539
  C      -73.335     158.233     147.100
  O      -71.601     154.167     150.593
  O      -73.403     155.975     150.734
  H      -69.302     155.985     145.249
  H      -72.939     156.091     151.585
  H      -72.510     161.627     145.837
  H      -74.884     159.138     148.245
  H      -73.540     157.229     147.447
  H      -71.291     157.395     144.691
  H      -69.795     158.200     146.949
  H      -70.926     156.624     148.377
  H      -70.607     154.611     146.081
  H      -72.616     153.587     147.014
  H      -71.359     153.648     148.276
  P      -68.503     156.070     149.400
  C      -66.767     157.757     148.538
  O      -68.038     157.584     149.155
  O      -67.456     155.175     149.978
  O      -69.731     156.231     150.414
  H      -69.593     155.648     151.185
  H      -66.564     158.802     148.426
  H      -66.771     157.289     147.576
  H      -66.010     157.310     149.149

 6  7  8  9  10  11  12  13  14  15  16  26  31  32  33  34  35 0
 6-311+G(2d,p)
 ****
 36  37 0
 6-311+G(2d,p)
 ****
 1  2  3  4  5  17  18  19  20  21  22  23  24  25 0
 3-21G
 ****
 27  28  29  30  38  39  40  41  42  43  44  45 0
 3-21G
 ****


