%nproc=1
%NoSave
%Mem=1900MB
#P OB98/GEN NMR

erre ene a

0 1
  C      411.544     856.851    -702.044
  O      411.542     858.255    -701.716
  P      411.240     859.267    -702.909
  C      409.242     860.560    -701.832
  O      409.666     859.662    -702.849
  C      408.240     861.559    -702.410
  O      408.696     862.128    -703.662
  C      406.879     860.944    -702.746
  O      406.126     860.700    -701.568
  C      406.300     862.000    -703.670
  O      405.774     863.102    -702.907
  C      407.550     862.459    -704.446
  N      407.085     863.203    -709.510
  C      406.904     864.024    -708.448
  N      407.039     863.757    -707.131
  C      407.427     862.469    -706.951
  C      407.665     861.526    -707.930
  C      407.462     861.927    -709.268
  N      407.640     861.074    -710.345
  N      408.044     860.329    -707.354
  C      408.016     860.540    -706.060
  N      407.661     861.831    -705.764
  O      411.338     858.361    -704.225
  O      412.172     860.428    -702.975
  H      405.067     862.738    -702.336
  H      412.155     858.577    -704.719
  H      406.601     865.033    -708.697
  H      408.229     859.797    -705.299
  H      407.554     863.559    -704.619
  H      405.484     861.609    -704.318
  H      407.031     859.989    -703.288
  H      408.108     862.376    -701.691
  H      410.097     861.095    -701.410
  H      407.420     861.417    -711.257
  H      407.857     860.096    -710.159
  H      408.804     859.990    -701.015
  P      405.616     859.198    -701.308
  C      407.396     858.273    -699.712
  O      406.967     858.364    -701.046
  O      405.182     858.739    -702.778
  O      404.563     859.070    -700.251
  H      405.864     858.975    -703.447
  H      408.310     857.660    -699.672
  H      406.622     857.800    -699.093
  H      407.643     859.276    -699.322
  H      411.758     856.280    -701.165
  H      412.292     856.659    -702.785
  H      410.584     856.573    -702.426

 3  4  5  6  7  8  9  10  11  12  22  25  29  30  31  32 0
 6-311+G(2d,p)
 ****
 33  36  37 0
 6-311+G(2d,p)
 ****
 1  2  13  14  15  16  17  18  19  20  21  23  24  26 0
 3-21G
 ****
 27  28  34  35  38  39  40  41  42  43  44  45  46  47  48 0
 3-21G
 ****


