%nproc=1
%NoSave
%Mem=1900MB
#P OB98/GEN NMR

erre ene a

0 1
  C     -103.889    -129.869     682.305
  O     -103.992    -131.269     682.466
  P     -103.062    -132.040     683.526
  C     -103.887    -134.285     682.559
  O     -102.754    -133.473     682.861
  C     -103.523    -135.359     681.535
  O     -103.252    -134.770     680.243
  C     -102.269    -136.158     681.892
  O     -102.555    -137.120     682.890
  C     -101.901    -136.745     680.535
  O     -102.668    -137.931     680.252
  C     -102.295    -135.606     679.568
  N     -101.136    -134.841     679.113
  C     -100.211    -135.539     678.331
  O     -100.374    -136.744     678.088
  N      -99.089    -134.879     677.881
  C      -98.908    -133.632     678.201
  N      -97.773    -133.034     677.738
  C      -99.845    -132.871     679.057
  C     -100.925    -133.529     679.473
  O     -103.591    -132.079     684.919
  O     -101.659    -131.274     683.399
  H     -102.397    -138.231     679.360
  H     -101.692    -130.387     683.826
  H      -99.643    -131.839     679.309
  H     -101.667    -133.046     680.100
  H     -102.810    -136.009     678.678
  H     -100.842    -137.029     680.477
  H     -101.474    -135.480     682.219
  H     -104.381    -136.039     681.424
  H      -97.145    -133.604     677.185
  H     -104.671    -133.646     682.140
  H      -97.519    -132.089     677.967
  H     -104.263    -134.741     683.481
  P     -101.935    -136.947     684.358
  C     -101.655    -139.493     684.591
  O     -101.015    -138.231     684.645
  O     -102.913    -136.611     685.432
  O     -100.862    -135.768     684.174
  H     -100.941    -135.149     684.924
  H     -100.895    -140.271     684.469
  H     -102.350    -139.542     683.747
  H     -102.202    -139.666     685.524
  H     -104.584    -129.544     681.560
  H     -102.895    -129.617     682.000
  H     -104.110    -129.386     683.234

 3  4  5  6  7  8  9  10  11  12  13  23  27  28  29  30  32 0
 6-311+G(2d,p)
 ****
 34  35 0
 6-311+G(2d,p)
 ****
 1  2  14  15  16  17  18  19  20  21  22  24  25  26 0
 3-21G
 ****
 31  33  36  37  38  39  40  41  42  43  44  45  46 0
 3-21G
 ****


