%nproc=1
%NoSave
%Mem=1900MB
#P OB98/GEN NMR

erre ene a

0 1
  C       82.718      58.494     129.809
  O       83.811      57.844     129.193
  H       81.881      57.793     129.862
  H       82.407      59.365     129.226
  H       82.981      58.798     130.825
  P       85.134      58.702     128.890
  C       84.599      57.999     126.454
  O       85.604      58.202     127.436
  C       85.106      57.055     125.367
  O       86.179      57.659     124.615
  C       85.685      55.740     125.878
  O       84.697      54.824     126.325
  C       86.398      55.261     124.625
  O       85.435      54.742     123.691
  C       87.016      56.582     124.107
  N       88.402      56.769     124.533
  C       89.394      56.422     123.605
  O       89.090      55.985     122.497
  N       90.713      56.545     123.970
  C       91.016      56.957     125.161
  N       92.338      57.016     125.488
  C       90.005      57.350     126.162
  C       88.733      57.228     125.788
  O       86.192      58.682     129.947
  O       84.589      60.171     128.563
  H       85.928      54.462     122.898
  H       85.372      60.745     128.380
  H       90.311      57.680     127.143
  H       87.931      57.479     126.474
  H       86.972      56.630     123.013
  H       87.124      54.465     124.818
  H       86.432      55.919     126.659
  H       84.279      56.885     124.665
  H       93.000      56.699     124.793
  H       84.331      58.973     126.034
  H       92.639      57.054     126.457
  H       83.710      57.553     126.912
  P       84.993      53.998     127.671
  C       85.507      51.712     126.530
  O       84.635      52.466     127.357
  O       83.817      54.471     128.644
  O       86.350      54.198     128.269
  H       84.104      55.214     129.210
  H       85.126      50.718     126.422
  H       86.479      51.675     126.977
  H       85.575      52.175     125.568

 6  7  8  9  10  11  12  13  14  15  16  26  30  31  32  33  35 0
 6-311+G(2d,p)
 ****
 37  38 0
 6-311+G(2d,p)
 ****
 1  2  3  4  5  17  18  19  20  21  22  23  24  25 0
 3-21G
 ****
 27  28  29  34  36  39  40  41  42  43  44  45  46 0
 3-21G
 ****


