%nproc=1
%NoSave
%Mem=1900MB
#P OB98/GEN NMR

erre ene a

0 1
  C      -61.118     200.525    -299.899
  O      -60.211     201.123    -298.987
  P      -58.952     200.253    -298.503
  C      -58.987     199.385    -296.048
  O      -59.500     199.258    -297.368
  C      -59.451     200.703    -295.427
  O      -60.896     200.788    -295.435
  C      -59.051     200.877    -293.966
  O      -57.710     201.327    -293.829
  C      -60.019     201.962    -293.521
  O      -59.547     203.255    -293.955
  C      -61.299     201.580    -294.285
  N      -65.007     201.885    -290.858
  C      -64.419     202.884    -291.610
  N      -64.834     204.146    -291.373
  N      -63.503     202.662    -292.521
  C      -63.172     201.349    -292.638
  C      -63.689     200.274    -291.950
  C      -64.691     200.537    -290.936
  O      -65.211     199.703    -290.198
  N      -63.116     199.100    -292.353
  C      -62.254     199.454    -293.290
  N      -62.226     200.813    -293.467
  O      -58.076     201.307    -297.673
  O      -58.173     199.617    -299.604
  H      -59.536     203.232    -294.934
  H      -57.166     200.966    -297.559
  H      -65.704     202.115    -290.163
  H      -61.631     198.771    -293.849
  H      -61.825     202.460    -294.669
  H      -60.137     202.013    -292.436
  H      -65.493     204.393    -290.650
  H      -59.233     199.963    -293.385
  H      -64.378     204.902    -291.869
  H      -59.060     201.525    -296.040
  H      -57.899     199.366    -296.081
  H      -59.333     198.539    -295.446
  P      -56.992     201.046    -292.419
  C      -56.794     203.377    -291.283
  O      -57.545     202.182    -291.432
  O      -55.477     201.471    -292.694
  O      -57.117     199.637    -291.936
  H      -54.871     200.986    -292.097
  H      -57.426     204.129    -290.801
  H      -56.473     203.762    -292.253
  H      -55.917     203.191    -290.650
  H      -61.900     201.218    -300.130
  H      -61.539     199.645    -299.458
  H      -60.599     200.261    -300.797

 3  4  5  6  7  8  9  10  11  12  23  26  30  31 0
 6-311+G(2d,p)
 ****
 33  35  36  37  38 0
 6-311+G(2d,p)
 ****
 1  2  13  14  15  16  17  18  19  20  21  22  24  25 0
 3-21G
 ****
 27  28  29  32  34  39  40  41  42  43  44  45  46  47  48  49 0
 3-21G
 ****


