%nproc=1
%NoSave
%Mem=1900MB
#P OB98/GEN NMR

erre ene a

0 1
  C     -225.199    -298.245     -56.324
  O     -224.638    -296.978     -56.643
  P     -224.172    -296.047     -55.418
  C     -226.287    -294.547     -55.541
  O     -225.527    -295.475     -54.774
  C     -227.534    -294.117     -54.780
  O     -228.384    -295.260     -54.550
  C     -227.264    -293.529     -53.402
  O     -226.879    -292.161     -53.476
  C     -228.628    -293.679     -52.745
  O     -229.483    -292.594     -53.150
  C     -229.134    -295.008     -53.334
  N     -231.104    -297.566     -49.429
  C     -231.579    -296.452     -50.089
  N     -232.762    -295.959     -49.661
  N     -230.951    -295.864     -51.073
  C     -229.801    -296.489     -51.419
  C     -229.220    -297.598     -50.845
  C     -229.903    -298.210     -49.720
  O     -229.494    -299.156     -49.058
  N     -228.059    -297.940     -51.480
  C     -227.948    -297.068     -52.460
  N     -228.968    -296.142     -52.445
  O     -223.546    -294.770     -56.155
  O     -223.201    -296.679     -54.477
  H     -229.550    -292.626     -54.121
  H     -222.895    -294.335     -55.570
  H     -231.636    -297.990     -48.690
  H     -227.158    -297.064     -53.195
  H     -230.189    -294.942     -53.619
  H     -228.580    -293.658     -51.650
  H     -233.358    -296.443     -48.998
  H     -226.525    -294.128     -52.858
  H     -233.147    -295.166     -50.157
  H     -228.093    -293.408     -55.402
  H     -226.590    -295.023     -56.481
  H     -225.661    -293.680     -55.772
  P     -225.644    -291.714     -52.552
  C     -227.113    -291.235     -50.457
  O     -226.103    -292.036     -51.050
  O     -225.690    -290.117     -52.637
  O     -224.325    -292.268     -52.970
  H     -224.799    -289.744     -52.473
  H     -227.868    -290.938     -51.193
  H     -226.653    -290.343     -50.023
  H     -227.599    -291.808     -49.665
  H     -225.463    -298.756     -57.226
  H     -226.074    -298.107     -55.723
  H     -224.482    -298.826     -55.782

 3  4  5  6  7  8  9  10  11  12  23  26  30  31  33  0
 6-311+G(2d,p)
 ****
 35  36  37  38 0
 6-311+G(2d,p)
 ****
 1  2  13  14  15  16  17  18  19  20  21  22  24  25  27  28  29 0
 3-21G
 ****
 32  34  39  40  41  42  43  44  45  46  47  48  49 0
 3-21G
 ****


