%nproc=1
%NoSave
%Mem=1900MB
#P OB98/GEN NMR

erre ene a

0 1
  C     -216.363    -441.311    -624.035
  O     -216.054    -440.470    -622.941
  H     -215.602    -441.177    -624.808
  H     -217.337    -441.040    -624.449
  H     -216.367    -442.360    -623.724
  P     -216.903    -440.672    -621.597
  C     -215.971    -442.946    -620.738
  O     -215.979    -441.529    -620.599
  C     -214.580    -443.490    -620.402
  O     -214.650    -444.945    -620.387
  C     -213.494    -443.092    -621.409
  O     -212.270    -442.891    -620.695
  C     -213.364    -444.331    -622.279
  O     -212.109    -444.440    -622.941
  C     -213.599    -445.437    -621.244
  N     -213.972    -446.709    -621.857
  C     -212.950    -447.612    -622.137
  O     -211.770    -447.452    -621.827
  N     -213.332    -448.746    -622.809
  C     -214.591    -449.048    -623.231
  O     -214.863    -450.076    -623.843
  C     -215.626    -448.054    -622.917
  C     -215.274    -446.948    -622.255
  O     -218.035    -441.711    -622.040
  O     -217.470    -439.428    -621.001
  H     -218.819    -441.241    -622.375
  H     -212.170    -445.191    -623.563
  H     -212.600    -449.408    -623.016
  H     -216.635    -448.254    -623.247
  H     -216.011    -446.181    -622.028
  H     -212.709    -445.578    -620.625
  H     -214.152    -444.332    -623.044
  H     -213.733    -442.202    -621.998
  H     -214.314    -443.174    -619.387
  H     -216.215    -443.209    -621.770
  H     -216.721    -443.377    -620.067
  P     -211.562    -441.455    -620.839
  C     -212.644    -439.954    -618.982
  O     -211.583    -440.814    -619.369
  O     -212.680    -440.637    -621.642
  O     -210.226    -441.522    -621.499
  H     -213.588    -440.892    -621.393
  H     -212.488    -439.626    -617.975
  H     -213.572    -440.482    -619.046
  H     -212.671    -439.105    -619.633

 6  7  8  9  10  11  12  13  14  15  16  27  31  32  33  34  35 0
 6-311+G(2d,p)
 ****
 36  37 0
 6-311+G(2d,p)
 ****
 1  2  3  4  5  17  18  19  20  21  22  23  24  25 0
 3-21G
 ****
 26  28  29  30  38  39  40  41  42  43  44  45 0
 3-21G
 ****


