%nproc=1
%NoSave
%Mem=1900MB
#P OB98/GEN NMR

erre ene a

0 1
  C     -260.576      -2.205     295.229
  O     -260.138      -2.681     296.485
  H     -261.453      -1.571     295.382
  H     -260.860      -3.042     294.586
  H     -259.796      -1.612     294.743
  P     -258.771      -3.515     296.561
  C     -260.060      -5.636     295.854
  O     -258.945      -4.788     295.604
  C     -259.655      -7.095     295.659
  O     -258.859      -7.236     294.461
  C     -258.800      -7.653     296.790
  O     -259.586      -7.949     297.928
  C     -258.181      -8.862     296.111
  O     -259.096      -9.972     296.103
  C     -257.942      -8.334     294.681
  N     -256.559      -7.917     294.451
  C     -255.610      -8.931     294.388
  O     -255.879     -10.121     294.546
  N     -254.318      -8.528     294.167
  C     -253.881      -7.234     294.117
  O     -252.699      -6.925     294.005
  C     -254.923      -6.205     294.213
  C     -256.196      -6.587     294.372
  O     -258.276      -3.822     297.936
  O     -257.728      -2.604     295.755
  H     -259.982      -9.596     295.944
  H     -257.133      -2.155     296.385
  H     -253.615      -9.248     294.132
  H     -254.620      -5.169     294.163
  H     -256.978      -5.843     294.451
  H     -258.195      -9.104     293.943
  H     -257.274      -9.201     296.612
  H     -258.003      -6.945     297.043
  H     -260.569      -7.691     295.531
  H     -260.860      -5.382     295.152
  H     -260.416      -5.463     296.876
  P     -258.991      -7.708     299.394
  C     -258.528     -10.188     299.892
  O     -257.960      -8.897     299.702
  O     -260.001      -7.457     300.463
  O     -258.030      -6.441     299.213
  H     -258.345      -5.714     299.785
  H     -257.749     -10.895     300.089
  H     -259.058     -10.478     299.009
  H     -259.204     -10.162     300.721

 6  7  8  9  10  11  12  13  14  15  16  26  31  32  33  34  35 0
 6-311+G(2d,p)
 ****
 36  37 0
 6-311+G(2d,p)
 ****
 1  2  3  4  5  17  18  19  20  21  22  23  24  25 0
 3-21G
 ****
 27  28  29  30  38  39  40  41  42  43  44  45 0
 3-21G
 ****


