%nproc=1
%NoSave
%Mem=1900MB
#P OB98/GEN NMR

erre ene a

0 1
  C       34.069     384.932     431.162
  O       33.558     386.246     431.283
  H       34.956     384.957     430.524
  H       33.324     384.275     430.707
  H       34.352     384.546     432.145
  P       32.185     386.402     432.106
  C       33.671     387.157     434.116
  O       32.654     386.290     433.639
  C       34.044     386.778     435.543
  O       35.282     387.412     435.931
  C       33.021     387.204     436.590
  O       31.896     386.345     436.650
  C       33.866     387.117     437.847
  O       34.024     385.738     438.229
  C       35.206     387.712     437.352
  N       35.313     389.153     437.578
  C       35.536     389.566     438.898
  O       35.619     388.742     439.808
  N       35.623     390.913     439.166
  C       35.507     391.772     438.203
  N       35.590     393.089     438.523
  C       35.292     391.381     436.795
  C       35.204     390.073     436.560
  O       31.441     385.007     431.866
  O       31.363     387.603     431.783
  H       34.410     385.274     437.463
  H       30.636     384.955     432.436
  H       35.194     392.133     436.027
  H       35.044     389.711     435.549
  H       36.056     387.215     437.836
  H       33.423     387.639     438.699
  H       32.712     388.248     436.449
  H       34.213     385.691     435.570
  H       35.675     393.331     439.503
  H       33.291     388.184     434.085
  H       35.334     393.826     437.877
  H       34.556     387.083     433.476
  P       30.519     386.956     437.205
  C       29.924     387.855     434.842
  O       30.108     388.153     436.220
  O       30.975     387.716     438.537
  O       29.443     385.949     437.473
  H       30.310     387.613     439.244
  H       29.654     388.748     434.317
  H       29.145     387.129     434.735
  H       30.834     387.464     434.437

 6  7  8  9  10  11  12  13  14  15  16  26  30  31  32  33  35 0
 6-311+G(2d,p)
 ****
 37  38 0
 6-311+G(2d,p)
 ****
 1  2  3  4  5  17  18  19  20  21  22  23  24  25 0
 3-21G
 ****
 27  28  29  34  36  39  40  41  42  43  44  45  46 0
 3-21G
 ****


