%nproc=1
%NoSave
%Mem=1900MB
#P OB98/GEN NMR

erre ene a

0 1
  C      -99.647    -178.454      79.431
  O      -98.295    -178.601      79.022
  P      -97.973    -179.622      77.829
  C      -97.530    -177.844      75.991
  O      -98.358    -178.911      76.444
  C      -97.484    -177.813      74.459
  O      -96.916    -179.060      73.965
  C      -98.857    -177.647      73.803
  O      -98.723    -176.882      72.596
  C      -99.228    -179.058      73.405
  O     -100.185    -179.071      72.343
  C      -97.856    -179.625      73.024
  N      -99.529    -183.884      70.883
  C      -99.555    -182.586      70.397
  N     -100.180    -182.397      69.221
  N      -98.993    -181.574      71.007
  C      -98.406    -181.914      72.181
  C      -98.307    -183.163      72.762
  C      -98.937    -184.274      72.078
  O      -98.975    -185.436      72.460
  N      -97.601    -183.120      73.932
  C      -97.312    -181.842      74.099
  N      -97.807    -181.068      73.079
  O      -99.108    -180.739      78.003
  O      -96.611    -180.230      77.885
  H      -99.685    -178.907      71.516
  H      -98.722    -181.548      78.383
  H      -99.984    -184.626      70.377
  H      -96.772    -181.426      74.936
  H      -97.551    -179.311      72.022
  H      -99.666    -179.594      74.261
  H     -100.686    -183.124      68.732
  H      -99.618    -177.183      74.448
  H     -100.248    -181.451      68.868
  H      -96.805    -177.006      74.150
  H      -96.514    -177.992      76.379
  H      -97.905    -176.892      76.372
  P      -99.864    -175.788      72.333
  C      -98.285    -173.818      72.959
  O      -99.482    -174.522      73.231
  O     -101.150    -176.403      73.073
  O     -100.119    -175.507      70.884
  H     -101.965    -176.068      72.662
  H      -98.538    -172.790      72.666
  H      -97.700    -174.279      72.159
  H      -97.681    -173.784      73.868
  H      -99.703    -177.744      80.230
  H     -100.023    -179.398      79.766
  H     -100.234    -178.109      78.606

 3  4  5  6  7  8  9  10  11  12  23  26  30  31 0
 6-311+G(2d,p)
 ****
 33  35  36  37  38 0
 6-311+G(2d,p)
 ****
 1  2  13  14  15  16  17  18  19  20  21  22  24  25 0
 3-21G
 ****
 27  28  29  32  34  39  40  41  42  43  44  45  46  47  48  49 0
 3-21G
 ****


