%nproc=1
%NoSave
%Mem=1900MB
#P OB98/GEN NMR

erre ene a

0 1
  C       32.820     -12.471      18.578
  O       32.084     -11.279      18.396
  H       33.120     -12.574      19.624
  H       32.187     -13.322      18.310
  H       33.705     -12.472      17.935
  P       32.827      -9.907      18.772
  C       31.385      -9.566      20.911
  O       31.758      -9.073      19.632
  C       30.197      -8.766      21.433
  O       29.763      -9.295      22.707
  C       30.506      -7.295      21.679
  O       30.438      -6.519      20.495
  C       29.392      -6.928      22.643
  O       28.158      -6.765      21.922
  C       29.328      -8.180      23.532
  N       29.626      -6.602      28.392
  C       28.612      -6.587      27.500
  N       28.608      -7.046      26.232
  C       29.799      -7.573      25.912
  C       30.923      -7.664      26.717
  C       30.809      -7.142      28.017
  N       31.849      -7.126      28.918
  N       31.967      -8.250      26.029
  C       31.475      -8.523      24.838
  N       30.178      -8.103      24.708
  O       32.875      -9.107      17.386
  O       34.166     -10.044      19.415
  H       28.042      -7.563      21.372
  H       33.499      -8.360      17.446
  H       27.684      -6.145      27.850
  H       32.016      -9.009      24.037
  H       28.312      -8.399      23.879
  H       29.582      -5.991      23.172
  H       31.471      -7.166      22.183
  H       29.367      -8.882      20.725
  H       32.232      -9.457      21.596
  H       31.714      -6.598      29.767
  H       32.770      -7.389      28.601
  H       31.122     -10.625      20.830
  P       31.566      -5.394      20.280
  C       30.130      -3.394      19.454
  O       31.033      -4.437      19.107
  O       32.752      -6.207      19.582
  O       32.006      -4.708      21.531
  H       33.621      -5.841      19.836
  H       29.865      -2.845      18.575
  H       30.597      -2.737      20.158
  H       29.249      -3.816      19.890

 6  7  8  9  10  11  12  13  14  15  25  28  32  33  34  35 0
 6-311+G(2d,p)
 ****
 36  39  40 0
 6-311+G(2d,p)
 ****
 1  2  3  4  5  16  17  18  19  20  21  22  23  24 0
 3-21G
 ****
 26  27  29  30  31  37  38  41  42  43  44  45  46  47 0
 3-21G
 ****
 48 0
 3-21G
 ****


