%nproc=1
%NoSave
%Mem=1900MB
#P OB98/GEN NMR

erre ene a

0 1
  C      333.209      93.036     271.305
  O      332.260      93.661     272.181
  P      331.206      94.772     271.698
  C      329.128      93.233     271.567
  O      330.061      94.036     270.848
  C      327.696      93.521     271.103
  O      327.549      93.203     269.698
  C      326.614      92.697     271.787
  O      326.374      93.115     273.118
  C      325.436      92.909     270.840
  O      324.740      94.128     271.136
  C      326.130      93.018     269.468
  N      325.888      91.869     268.611
  C      325.260      92.121     267.385
  O      324.870      93.257     267.109
  N      325.078      91.076     266.516
  C      325.393      89.872     266.877
  N      325.209      88.877     265.965
  C      325.929      89.546     268.214
  C      326.151      90.579     269.020
  O      331.832      95.929     270.986
  O      330.454      95.250     273.027
  H      330.126      96.160     272.906
  H      324.046      94.227     270.454
  H      326.142      88.522     268.489
  H      326.559      90.431     270.014
  H      325.804      93.929     268.950
  H      324.704      92.096     270.904
  H      326.905      91.638     271.775
  H      327.502      94.594     271.241
  H      324.850      89.138     265.056
  H      329.211      93.476     272.632
  H      325.442      87.911     266.137
  H      329.379      92.176     271.428
  P      326.619      92.032     274.277
  C      329.098      92.712     274.654
  O      328.186      91.692     274.299
  O      325.945      90.699     273.695
  O      326.038      92.401     275.603
  H      325.494      90.219     274.415
  H      329.987      92.251     275.087
  H      328.666      93.407     275.378
  H      329.386      93.261     273.754
  H      333.797      92.334     271.859
  H      333.848      93.782     270.881
  H      332.689      92.525     270.522

 3  4  5  6  7  8  9  10  11  12  13  24  27  28  29  30  32 0
 6-311+G(2d,p)
 ****
 34  35 0
 6-311+G(2d,p)
 ****
 1  2  14  15  16  17  18  19  20  21  22  23  25  26 0
 3-21G
 ****
 31  33  36  37  38  39  40  41  42  43  44  45  46 0
 3-21G
 ****


