%nproc=1
%NoSave
%Mem=1900MB
#P OB98/GEN NMR

erre ene a

0 1
  C      -83.853      67.288     180.061
  O      -83.093      67.160     178.850
  P      -82.758      68.529     178.072
  C      -83.058      67.619     175.648
  O      -82.163      68.136     176.622
  C      -82.272      66.955     174.518
  O      -81.549      65.783     174.975
  C      -83.154      66.457     173.375
  O      -83.604      67.537     172.570
  C      -82.189      65.486     172.674
  O      -81.273      66.224     171.837
  C      -81.442      64.863     173.863
  N      -81.176      59.838     172.988
  C      -80.518      60.871     172.435
  N      -80.643      62.185     172.720
  C      -81.564      62.378     173.701
  C      -82.296      61.413     174.363
  C      -82.087      60.080     173.961
  N      -82.756      59.009     174.533
  N      -83.121      61.984     175.304
  C      -82.911      63.283     175.193
  N      -81.954      63.569     174.244
  O      -81.487      69.099     178.859
  O      -83.892      69.498     178.045
  H      -81.816      66.754     171.211
  H      -81.751      69.876     179.378
  H      -79.805      60.621     171.650
  H      -83.410      64.047     175.777
  H      -80.376      64.739     173.644
  H      -82.719      64.762     172.034
  H      -84.012      65.903     173.769
  H      -81.536      67.683     174.131
  H      -83.683      68.417     175.236
  H      -82.598      58.091     174.132
  H      -83.496      59.189     175.191
  H      -83.723      66.901     176.137
  P      -84.949      67.330     171.713
  C      -84.140      68.292     169.479
  O      -84.913      68.530     170.642
  O      -86.064      67.818     172.753
  O      -85.135      65.948     171.163
  H      -85.808      68.658     173.202
  H      -84.225      69.168     168.828
  H      -84.511      67.413     168.939
  H      -83.093      68.150     169.745
  H      -84.013      66.319     180.486
  H      -84.797      67.742     179.843
  H      -83.316      67.898     180.756

 3  4  5  6  7  8  9  10  11  12  22  25  29  30  31  32 0
 6-311+G(2d,p)
 ****
 33  36  37 0
 6-311+G(2d,p)
 ****
 1  2  13  14  15  16  17  18  19  20  21  23  24  26 0
 3-21G
 ****
 27  28  34  35  38  39  40  41  42  43  44  45  46  47  48 0
 3-21G
 ****


