%nproc=1
%NoSave
%Mem=1900MB
#P OB98/GEN NMR

erre ene a

0 1
  C      274.081    -494.153    -891.050
  O      273.857    -492.998    -891.870
  P      275.068    -492.487    -892.800
  C      273.697    -492.695    -895.000
  O      274.852    -493.091    -894.270
  C      274.076    -492.338    -896.440
  O      274.904    -491.150    -896.500
  C      274.857    -493.441    -897.160
  O      274.014    -494.434    -897.700
  C      275.510    -492.647    -898.290
  O      274.553    -492.446    -899.350
  C      275.842    -491.317    -897.600
  N      280.042    -488.496    -897.410
  C      278.820    -488.232    -898.000
  N      278.705    -487.048    -898.620
  N      277.808    -489.061    -897.980
  C      278.062    -490.205    -897.300
  C      279.238    -490.587    -896.680
  C      280.349    -489.658    -896.720
  O      281.472    -489.849    -896.240
  N      279.119    -491.822    -896.110
  C      277.887    -492.183    -896.370
  N      277.206    -491.253    -897.100
  O      276.311    -493.334    -892.240
  O      275.311    -491.018    -892.730
  H      274.975    -491.855    -900.000
  H      277.138    -492.835    -892.400
  H      280.794    -487.841    -897.470
  H      277.429    -493.126    -896.030
  H      275.696    -490.451    -898.270
  H      276.364    -493.173    -898.720
  H      279.421    -486.328    -898.630
  H      275.643    -493.855    -896.490
  H      277.803    -486.821    -899.030
  H      273.146    -492.145    -897.000
  H      273.213    -491.840    -894.530
  H      272.962    -493.498    -894.980
  P      274.506    -495.957    -897.630
  C      272.702    -496.922    -896.020
  O      274.044    -496.511    -896.190
  O      276.096    -495.821    -897.500
  O      274.114    -496.799    -898.800
  H      276.538    -496.576    -897.930
  H      272.619    -497.417    -895.040
  H      272.406    -497.634    -896.800
  H      272.038    -496.047    -896.040
  H      273.194    -494.372    -890.492
  H      274.888    -493.960    -890.375
  H      274.327    -494.989    -891.671

 3  4  5  6  7  8  9  10  11  12  23  26  30  31 0
 6-311+G(2d,p)
 ****
 33  35  36  37  38 0
 6-311+G(2d,p)
 ****
 1  2  13  14  15  16  17  18  19  20  21  22  24  25 0
 3-21G
 ****
 27  28  29  32  34  39  40  41  42  43  44  45  46  47  48  49 0
 3-21G
 ****


