%nproc=1
%NoSave
%Mem=1900MB
#P OB98/GEN NMR

erre ene a

0 1
  C       15.669     -81.455     216.683
  O       16.151     -80.233     216.126
  P       17.253     -80.306     214.963
  C       15.568     -80.002     213.032
  O       16.548     -80.848     213.626
  C       15.952     -79.668     211.579
  O       15.969     -80.895     210.801
  C       14.982     -78.728     210.851
  O       15.199     -77.322     210.951
  C       15.233     -79.104     209.394
  O       16.389     -78.398     208.903
  C       15.538     -80.601     209.454
  N       14.083     -85.162     207.638
  C       15.301     -84.630     207.880
  N       15.603     -83.410     208.365
  C       14.488     -82.707     208.617
  C       13.176     -83.117     208.423
  C       12.988     -84.407     207.904
  N       11.748     -84.941     207.646
  N       12.294     -82.119     208.790
  C       13.064     -81.120     209.181
  N       14.394     -81.430     209.108
  O       18.543     -80.968     215.323
  O       17.493     -78.757     214.615
  H       16.186     -77.445     208.974
  H       18.439     -78.619     214.415
  H       16.149     -85.274     207.656
  H       12.699     -80.157     209.518
  H       16.354     -80.887     208.782
  H       14.402     -78.834     208.741
  H       13.944     -78.961     211.120
  H       16.965     -79.242     211.564
  H       15.482     -79.080     213.611
  H       11.701     -85.861     207.233
  H       10.922     -84.376     207.784
  H       14.606     -80.515     213.101
  P       13.982     -76.281     210.867
  C       13.725     -76.147     213.467
  O       13.150     -76.478     212.223
  O       13.166     -76.363     209.622
  O       14.711     -74.876     211.093
  H       15.065     -74.746     211.989
  H       12.941     -76.144     214.230
  H       14.187     -75.156     213.433
  H       14.477     -76.895     213.739
  H       14.945     -81.240     217.441
  H       16.485     -81.997     217.113
  H       15.216     -82.044     215.913

 3  4  5  6  7  8  9  10  11  12  22  25  29  30  31  32 0
 6-311+G(2d,p)
 ****
 33  36  37 0
 6-311+G(2d,p)
 ****
 1  2  13  14  15  16  17  18  19  20  21  23  24  26 0
 3-21G
 ****
 27  28  34  35  38  39  40  41  42  43  44  45  46  47  48 0
 3-21G
 ****


