%nproc=1
%NoSave
%Mem=1900MB
#P OB98/GEN NMR

erre ene a

0 1
  C      -45.716      18.546     -23.556
  O      -46.549      17.427     -23.246
  P      -47.947      17.666     -22.505
  C      -47.722      16.482     -20.217
  O      -48.253      16.427     -21.537
  C      -47.597      15.068     -19.643
  O      -46.327      14.464     -19.992
  C      -47.632      15.041     -18.121
  O      -48.865      15.351     -17.507
  C      -47.020      13.686     -17.807
  O      -47.985      12.639     -17.899
  C      -45.966      13.554     -18.932
  N      -44.603      13.801     -18.460
  C      -43.997      12.758     -17.769
  O      -44.562      11.697     -17.515
  N      -42.718      12.990     -17.341
  C      -42.016      14.149     -17.503
  O      -40.879      14.311     -17.079
  C      -42.718      15.224     -18.220
  C      -43.960      15.006     -18.659
  O      -49.080      18.086     -23.379
  O      -47.593      18.836     -21.459
  H      -48.507      12.650     -17.074
  H      -48.344      19.461     -21.446
  H      -42.259      12.241     -16.845
  H      -42.195      16.159     -18.363
  H      -44.495      15.785     -19.191
  H      -45.991      12.545     -19.363
  H      -46.609      13.654     -16.794
  H      -46.924      15.798     -17.755
  H      -48.385      14.446     -20.073
  H      -48.367      17.092     -19.584
  H      -46.750      16.986     -20.246
  P      -49.001      16.352     -16.263
  C      -50.366      14.733     -14.768
  O      -50.326      15.968     -15.447
  O      -48.749      17.801     -16.517
  O      -47.847      15.800     -15.287
  H      -47.476      16.554     -14.792
  H      -51.342      14.632     -14.285
  H      -49.590      14.692     -14.000
  H      -50.238      13.906     -15.472
  H      -44.828      18.205     -24.046
  H      -45.451      19.055     -22.653
  H      -46.245      19.216     -24.201

 3  4  5  6  7  8  9  10  11  12  13  23  28  29  30  31  32 0
 6-311+G(2d,p)
 ****
 33  34 0
 6-311+G(2d,p)
 ****
 1  2  14  15  16  17  18  19  20  21  22  24  25  26  27 0
 3-21G
 ****
 35  36  37  38  39  40  41  42  43  44  45 0
 3-21G
 ****


