%nproc=1
%NoSave
%Mem=1900MB
#P OB98/GEN NMR

erre ene a

0 1
  C      -77.269     -77.509     -24.276
  O      -76.598     -76.518     -25.063
  P      -75.281     -75.841     -24.455
  C      -76.591     -73.775     -23.570
  O      -75.526     -74.257     -24.374
  C      -76.632     -72.244     -23.608
  O      -75.469     -71.661     -22.985
  C      -76.683     -71.669     -25.019
  O      -78.008     -71.665     -25.540
  C      -76.219     -70.242     -24.772
  O      -77.313     -69.453     -24.263
  C      -75.150     -70.433     -23.687
  N      -70.396     -68.756     -23.234
  C      -71.521     -68.457     -22.489
  N      -71.353     -67.592     -21.467
  N      -72.700     -68.965     -22.722
  C      -72.718     -69.829     -23.764
  C      -71.676     -70.206     -24.579
  C      -70.374     -69.626     -24.320
  O      -69.345     -69.844     -24.952
  N      -72.080     -71.098     -25.532
  C      -73.363     -71.282     -25.289
  N      -73.803     -70.519     -24.234
  O      -74.228     -75.975     -25.654
  O      -74.779     -76.487     -23.206
  H      -76.954     -68.563     -24.080
  H      -73.321     -76.012     -25.297
  H      -69.510     -68.337     -23.014
  H      -74.013     -71.949     -25.839
  H      -75.147     -69.622     -22.952
  H      -75.874     -69.753     -25.685
  H      -70.459     -67.203     -21.197
  H      -75.979     -72.188     -25.684
  H      -72.157     -67.387     -20.888
  H      -77.523     -71.914     -23.057
  H      -76.474     -74.116     -22.537
  H      -77.529     -74.211     -23.922
  P      -78.562     -73.027     -26.183
  C      -78.934     -71.770     -28.424
  O      -79.488     -72.587     -27.414
  O      -79.602     -73.539     -25.078
  O      -77.518     -74.050     -26.478
  H      -79.633     -74.513     -25.080
  H      -79.648     -71.709     -29.252
  H      -77.999     -72.191     -28.797
  H      -78.761     -70.760     -28.039
  H      -78.125     -77.868     -24.809
  H      -77.582     -77.076     -23.349
  H      -76.602     -78.323     -24.083

 3  4  5  6  7  8  9  10  11  12  23  26  30  31 0
 6-311+G(2d,p)
 ****
 33  35  36  37  38 0
 6-311+G(2d,p)
 ****
 1  2  13  14  15  16  17  18  19  20  21  22  24  25 0
 3-21G
 ****
 27  28  29  32  34  39  40  41  42  43  44  45  46  47  48  49 0
 3-21G
 ****


