%nproc=1
%NoSave
%Mem=1900MB
#P OB98/GEN NMR

erre ene a

0 1
  C       -6.868     362.007     734.868
  O       -5.790     362.476     735.664
  P       -4.489     363.023     734.911
  C       -2.556     364.617     735.655
  O       -3.927     364.261     735.765
  C       -2.256     365.801     736.570
  O       -2.973     366.977     736.133
  C       -2.685     365.577     738.020
  O       -1.751     364.767     738.718
  C       -2.756     367.008     738.536
  O       -1.459     367.482     738.937
  C       -3.255     367.776     737.299
  N       -4.676     368.122     737.388
  C       -4.994     369.162     738.260
  O       -4.150     369.748     738.933
  N       -6.320     369.477     738.354
  C       -7.348     368.832     737.720
  O       -8.524     369.132     737.890
  C       -6.950     367.726     736.842
  C       -5.657     367.420     736.725
  O       -5.080     363.720     733.588
  O       -3.471     361.981     734.585
  H       -1.602     368.339     739.383
  H       -4.453     363.590     732.842
  H       -6.574     370.242     738.950
  H       -7.738     367.193     736.317
  H       -5.350     366.596     736.084
  H       -2.687     368.709     737.181
  H       -3.405     367.094     739.414
  H       -3.683     365.135     738.044
  H       -1.180     366.015     736.517
  H       -2.343     364.889     734.615
  H       -1.934     363.753     735.919
  P       -2.345     363.756     739.816
  C       -1.198     361.881     741.225
  O       -1.179     362.678     740.057
  O       -3.457     362.992     738.944
  O       -2.870     364.452     741.021
  H       -3.196     362.904     738.010
  H       -2.213     361.615     741.516
  H       -0.701     362.419     742.037
  H       -0.638     360.958     741.019
  H       -7.662     361.675     735.503
  H       -6.534     361.193     734.259
  H       -7.220     362.800     734.241

 3  4  5  6  7  8  9  10  11  12  13  23  28  29  30  31  32 0
 6-311+G(2d,p)
 ****
 33  34 0
 6-311+G(2d,p)
 ****
 1  2  14  15  16  17  18  19  20  21  22  24  25  26 0
 3-21G
 ****
 27  35  36  37  38  39  40  41  42  43  44  45 0
 3-21G
 ****


