%nproc=1
%NoSave
%Mem=1900MB
#P OB98/GEN NMR

erre ene a

0 1
  C     -282.071     652.694     -64.636
  O     -281.822     653.492     -63.471
  P     -282.845     654.650     -63.036
  C     -282.332     656.968     -64.002
  O     -282.969     655.712     -64.237
  C     -281.896     657.675     -65.297
  O     -283.037     658.226     -66.004
  C     -280.901     658.824     -65.098
  O     -280.062     658.820     -66.254
  C     -281.803     660.043     -65.087
  O     -281.095     661.249     -65.337
  C     -282.835     659.646     -66.149
  N     -284.086     660.389     -66.010
  C     -284.103     661.695     -66.515
  O     -283.076     662.192     -66.992
  N     -285.258     662.425     -66.424
  C     -286.280     661.932     -65.791
  N     -287.390     662.711     -65.707
  C     -286.278     660.588     -65.169
  C     -285.166     659.883     -65.331
  O     -282.575     655.253     -61.701
  O     -284.276     653.917     -63.048
  H     -281.731     662.002     -65.274
  H     -284.853     654.341     -62.387
  H     -287.143     660.225     -64.629
  H     -285.061     658.887     -64.914
  H     -282.436     659.815     -67.159
  H     -282.287     660.135     -64.103
  H     -280.303     658.730     -64.182
  H     -281.463     656.912     -65.956
  H     -287.343     663.632     -66.123
  H     -281.446     656.792     -63.380
  H     -288.196     662.474     -65.146
  H     -283.011     657.608     -63.440
  P     -278.607     658.145     -66.250
  C     -277.106     660.049     -65.414
  O     -277.774     658.847     -65.076
  O     -277.916     658.129     -67.578
  O     -278.840     656.655     -65.700
  H     -278.069     656.107     -65.933
  H     -276.764     660.536     -64.504
  H     -277.783     660.735     -65.949
  H     -276.249     659.828     -66.051
  H     -281.281     651.983     -64.757
  H     -282.117     653.326     -65.498
  H     -283.001     652.178     -64.523

 3  4  5  6  7  8  9  10  11  12  13  23  27  28  29  30  32 0
 6-311+G(2d,p)
 ****
 34  35 0
 6-311+G(2d,p)
 ****
 1  2  14  15  16  17  18  19  20  21  22  24  25  26 0
 3-21G
 ****
 31  33  36  37  38  39  40  41  42  43  44  45  46 0
 3-21G
 ****


