%nproc=1
%NoSave
%Mem=1900MB
#P OB98/GEN NMR

erre ene a

0 1
  C     -185.183    1073.029    -327.204
  O     -186.231    1073.429    -326.323
  P     -187.671    1073.769    -326.911
  C     -188.910    1071.501    -326.703
  O     -188.760    1072.846    -326.191
  C     -189.613    1070.607    -325.687
  O     -188.859    1070.460    -324.486
  C     -190.983    1071.167    -325.246
  O     -191.935    1071.006    -326.262
  C     -191.230    1070.362    -323.979
  O     -191.769    1069.063    -324.282
  C     -189.781    1070.212    -323.401
  N     -189.525    1071.106    -322.271
  C     -189.793    1070.571    -321.000
  O     -190.285    1069.434    -320.889
  N     -189.567    1071.343    -319.910
  C     -189.074    1072.555    -320.043
  N     -188.857    1073.290    -318.915
  C     -188.794    1073.154    -321.368
  C     -189.035    1072.394    -322.417
  O     -187.763    1073.777    -328.421
  O     -188.000    1075.216    -326.309
  H     -191.078    1068.611    -324.800
  H     -188.554    1075.703    -326.922
  H     -188.381    1074.150    -321.436
  H     -188.843    1072.740    -323.416
  H     -189.621    1069.194    -323.059
  H     -191.934    1070.884    -323.306
  H     -190.877    1072.249    -325.003
  H     -189.752    1069.616    -326.142
  H     -189.056    1072.841    -318.010
  H     -187.929    1071.090    -326.936
  H     -188.432    1074.205    -318.921
  H     -189.456    1071.530    -327.663
  P     -192.906    1072.253    -326.564
  C     -192.245    1072.354    -329.085
  O     -193.287    1072.198    -328.135
  O     -191.907    1073.508    -326.478
  O     -194.070    1072.396    -325.651
  H     -192.409    1074.285    -326.125
  H     -192.603    1071.970    -330.060
  H     -191.358    1071.797    -328.799
  H     -191.999    1073.416    -329.181
  H     -184.294    1072.843    -326.639
  H     -184.998    1073.807    -327.914
  H     -185.472    1072.137    -327.720

 3  4  5  6  7  8  9  10  11  12  13  23  27  28  29  30  32 0
 6-311+G(2d,p)
 ****
 34  35 0
 6-311+G(2d,p)
 ****
 1  2  14  15  16  17  18  19  20  21  22  24  25  26 0
 3-21G
 ****
 31  33  36  37  38  39  40  41  42  43  44  45  46 0
 3-21G
 ****


