%nproc=1
%NoSave
%Mem=1900MB
#P OB98/GEN NMR

erre ene a

0 1
  C     -208.853    -337.685     -56.636
  O     -209.945    -338.297     -57.334
  P     -211.452    -338.305     -56.782
  C     -211.592    -340.250     -55.093
  O     -211.465    -338.845     -55.271
  C     -212.059    -340.608     -53.680
  O     -213.423    -340.124     -53.464
  C     -212.055    -342.117     -53.369
  O     -211.621    -342.253     -52.012
  C     -213.525    -342.475     -53.521
  O     -213.885    -343.694     -52.901
  C     -214.164    -341.227     -52.898
  N     -215.594    -341.064     -53.142
  C     -216.459    -341.189     -52.046
  O     -216.038    -341.483     -50.928
  N     -217.804    -340.996     -52.251
  C     -218.251    -340.718     -53.433
  N     -219.594    -340.528     -53.558
  C     -217.383    -340.597     -54.616
  C     -216.082    -340.779     -54.399
  O     -212.414    -339.023     -57.674
  O     -211.864    -336.763     -56.641
  H     -212.810    -336.660     -56.865
  H     -213.454    -344.421     -53.390
  H     -217.794    -340.353     -55.581
  H     -215.372    -340.678     -55.212
  H     -213.972    -341.221     -51.819
  H     -213.756    -342.560     -54.589
  H     -211.387    -342.693     -54.013
  H     -211.422    -340.070     -52.966
  H     -220.158    -340.608     -52.721
  H     -210.617    -340.712     -55.271
  H     -220.049    -340.300     -54.432
  H     -212.297    -340.640     -55.838
  P     -210.089    -342.608     -51.702
  C     -210.202    -345.122     -52.391
  O     -209.674    -343.834     -52.651
  O     -210.199    -343.326     -50.270
  O     -209.142    -341.453     -51.628
  H     -209.350    -343.232     -49.798
  H     -210.519    -345.565     -53.337
  H     -211.059    -345.092     -51.713
  H     -209.421    -345.746     -51.950
  H     -207.953    -337.810     -57.201
  H     -208.739    -338.146     -55.677
  H     -209.051    -336.641     -56.508

 3  4  5  6  7  8  9  10  11  12  13  24  27  28  29  30  32 0
 6-311+G(2d,p)
 ****
 34  35 0
 6-311+G(2d,p)
 ****
 1  2  14  15  16  17  18  19  20  21  22  23  25  26 0
 3-21G
 ****
 31  33  36  37  38  39  40  41  42  43  44  45  46 0
 3-21G
 ****


