%nproc=1
%NoSave
%Mem=1900MB
#P OB98/GEN NMR

erre ene a

0 1
  C     -194.150     -90.505     372.162
  O     -194.257     -91.814     371.585
  P     -193.420     -93.060     372.156
  C     -191.318     -94.425     371.587
  O     -192.307     -93.531     371.091
  C     -190.502     -95.099     370.476
  O     -191.295     -96.089     369.771
  C     -189.942     -94.144     369.411
  O     -188.713     -94.721     368.962
  C     -190.998     -94.228     368.320
  O     -190.543     -93.781     367.055
  C     -191.338     -95.716     368.379
  N     -193.858     -96.880     364.067
  C     -192.533     -96.837     364.351
  N     -191.944     -96.559     365.528
  C     -192.860     -96.345     366.493
  C     -194.240     -96.369     366.357
  C     -194.736     -96.645     365.072
  N     -196.083     -96.650     364.760
  N     -194.856     -96.078     367.558
  C     -193.863     -95.866     368.401
  N     -192.636     -96.023     367.805
  O     -194.268     -94.179     372.672
  O     -192.551     -92.439     373.349
  H     -191.296     -93.795     366.438
  H     -192.608     -93.026     374.125
  H     -191.867     -97.045     363.521
  H     -193.972     -95.582     369.437
  H     -190.584     -96.314     367.849
  H     -191.861     -93.604     368.606
  H     -189.788     -93.124     369.779
  H     -189.682     -95.648     370.961
  H     -191.817     -95.196     372.187
  H     -196.338     -96.764     363.796
  H     -196.746     -96.347     365.461
  H     -190.645     -93.872     372.255
  P     -187.434     -93.821     368.629
  C     -186.769     -92.162     366.791
  O     -187.732     -93.102     367.226
  O     -186.122     -94.540     368.691
  O     -187.494     -92.617     369.681
  H     -186.620     -92.196     369.750
  H     -186.873     -91.234     367.357
  H     -186.923     -91.959     365.729
  H     -185.753     -92.556     366.923
  H     -194.788     -89.829     371.633
  H     -193.137     -90.167     372.094
  H     -194.445     -90.543     373.190

 3  4  5  6  7  8  9  10  11  12  22  25  29  30  31  32 0
 6-311+G(2d,p)
 ****
 33  36  37 0
 6-311+G(2d,p)
 ****
 1  2  13  14  15  16  17  18  19  20  21  23  24  26 0
 3-21G
 ****
 27  28  34  35  38  39  40  41  42  43  44  45  46  47  48 0
 3-21G
 ****


