%nproc=1
%NoSave
%Mem=1900MB
#P OB98/GEN NMR

erre ene a

0 1
  C      247.653     275.134    -341.275
  O      248.525     275.214    -342.387
  P      249.672     276.340    -342.476
  C      248.046     278.211    -343.222
  O      249.149     277.390    -343.569
  C      247.632     279.078    -344.413
  O      248.697     280.020    -344.694
  C      247.355     278.291    -345.701
  O      246.292     278.960    -346.388
  C      248.659     278.429    -346.466
  O      248.498     278.219    -347.861
  C      249.072     279.852    -346.078
  N      250.498     280.094    -346.269
  C      250.922     280.502    -347.536
  O      250.122     280.628    -348.462
  N      252.255     280.759    -347.730
  C      253.102     280.548    -346.768
  N      254.404     280.874    -346.995
  C      252.712     280.011    -345.452
  C      251.406     279.832    -345.270
  O      251.045     275.818    -342.719
  O      249.512     277.168    -341.119
  H      247.733     278.747    -348.165
  H      250.003     276.763    -340.360
  H      253.457     279.823    -344.693
  H      251.023     279.469    -344.325
  H      248.490     280.585    -346.649
  H      249.380     277.691    -346.095
  H      247.066     277.253    -345.511
  H      246.747     279.659    -344.125
  H      254.603     281.395    -347.840
  H      248.349     278.865    -342.399
  H      255.039     281.043    -346.222
  H      247.216     277.588    -342.879
  P      244.971     278.118    -346.750
  C      245.195     278.356    -349.324
  O      244.431     278.630    -348.171
  O      243.899     278.756    -345.736
  O      245.048     276.643    -346.545
  H      243.199     278.100    -345.563
  H      244.674     278.767    -350.193
  H      245.304     277.277    -349.465
  H      246.182     278.823    -349.251
  H      246.971     274.321    -341.414
  H      247.105     276.048    -341.185
  H      248.224     274.972    -340.385

 3  4  5  6  7  8  9  10  11  12  13  23  27  28  29  30  32 0
 6-311+G(2d,p)
 ****
 34  35 0
 6-311+G(2d,p)
 ****
 1  2  14  15  16  17  18  19  20  21  22  24  25  26 0
 3-21G
 ****
 31  33  36  37  38  39  40  41  42  43  44  45  46 0
 3-21G
 ****


