%nproc=1
%NoSave
%Mem=1900MB
#P OB98/GEN NMR

erre ene a

0 1
  C     -289.906     822.761      42.964
  O     -289.958     822.238      41.651
  H     -290.923     822.815      43.361
  H     -289.477     823.768      42.956
  H     -289.312     822.105      43.605
  P     -288.563     822.110      40.873
  C     -287.961     819.886      42.052
  O     -287.630     821.256      41.862
  C     -286.878     818.985      41.463
  O     -285.581     819.409      41.912
  C     -287.009     817.516      41.841
  O     -287.936     816.863      40.988
  C     -285.586     817.028      41.597
  O     -285.399     816.774      40.191
  C     -284.733     818.234      42.031
  N     -280.690     816.973      44.927
  C     -280.964     816.750      43.628
  N     -282.081     817.063      42.935
  C     -282.973     817.685      43.725
  C     -282.836     817.980      45.073
  C     -281.625     817.602      45.685
  N     -281.352     817.833      47.014
  N     -283.962     818.620      45.553
  C     -284.734     818.760      44.499
  N     -284.199     818.178      43.374
  O     -287.985     823.387      40.365
  O     -288.941     821.040      39.741
  H     -285.748     815.880      40.020
  H     -289.506     820.338      40.112
  H     -280.183     816.246      43.064
  H     -285.686     819.288      44.488
  H     -283.878     818.384      41.362
  H     -285.365     816.099      42.120
  H     -287.254     817.389      42.900
  H     -286.902     819.108      40.368
  H     -288.927     819.660      41.585
  H     -280.551     817.362      47.405
  H     -282.098     818.183      47.596
  H     -288.054     819.712      43.129
  P     -289.145     815.995      41.591
  C     -291.140     817.210      40.517
  O     -290.370     817.025      41.698
  O     -288.813     815.251      42.834
  O     -289.578     815.037      40.385
  H     -290.122     814.304      40.724
  H     -291.923     817.914      40.708
  H     -291.566     816.275      40.219
  H     -290.510     817.581      39.735

 6  7  8  9  10  11  12  13  14  15  25  28  32  33  34  35 0
 6-311+G(2d,p)
 ****
 36  39  40 0
 6-311+G(2d,p)
 ****
 1  2  3  4  5  16  17  18  19  20  21  22  23  24 0
 3-21G
 ****
 26  27  29  30  31  37  38  41  42  43  44  45  46  47 0
 3-21G
 ****
 48 0
 3-21G
 ****


