%nproc=1
%NoSave
%Mem=1900MB
#P OB98/GEN NMR

erre ene a

0 1
  C     1267.384    -519.469     527.077
  O     1266.711    -520.698     526.841
  H     1268.476    -519.663     527.069
  H     1267.118    -519.076     528.060
  H     1267.147    -518.755     526.294
  P     1265.101    -520.635     526.851
  C     1264.746    -520.690     524.274
  O     1264.615    -521.389     525.509
  C     1264.228    -521.549     523.117
  O     1265.138    -522.660     522.866
  C     1262.849    -522.152     523.345
  O     1261.822    -521.223     523.032
  C     1262.870    -523.347     522.381
  O     1262.597    -522.929     521.036
  C     1264.325    -523.830     522.520
  N     1265.943    -528.567     523.279
  C     1265.919    -527.791     522.143
  N     1266.385    -528.390     521.007
  N     1265.509    -526.555     522.079
  C     1265.096    -526.094     523.277
  C     1265.041    -526.761     524.502
  C     1265.526    -528.117     524.539
  O     1265.628    -528.813     525.537
  N     1264.538    -525.955     525.489
  C     1264.225    -524.808     524.873
  N     1264.506    -524.869     523.518
  O     1264.791    -519.085     526.524
  O     1264.450    -521.080     528.112
  H     1261.687    -522.625     520.997
  H     1263.954    -518.839     526.965
  H     1266.287    -529.496     523.252
  H     1263.794    -523.942     525.349
  H     1264.707    -524.219     521.563
  H     1262.132    -524.100     522.670
  H     1266.370    -529.402     520.918
  H     1262.737    -522.519     524.380
  H     1266.351    -527.830     520.146
  H     1264.224    -520.929     522.206
  H     1265.805    -520.459     524.099
  H     1264.184    -519.752     524.322
  P     1260.310    -521.638     523.418
  C     1259.709    -520.306     525.574
  O     1259.646    -520.374     524.136
  O     1260.501    -522.701     524.600
  O     1259.512    -522.212     522.278
  H     1259.671    -523.210     524.727
  H     1259.227    -519.412     525.910
  H     1260.732    -520.299     525.886
  H     1259.214    -521.157     525.993

 6  7  8  9  10  11  12  13  14  15  26  29  33  34 0
 6-311+G(2d,p)
 ****
 36  38  39  40  41 0
 6-311+G(2d,p)
 ****
 1  2  3  4  5  16  17  18  19  20  21  22  23  24  25 0
 3-21G
 ****
 27  28  30  31  32  35  37  42  43  44  45  46  47 0
 3-21G
 ****
 48  49 0
 3-21G
 ****


