%nproc=1
%NoSave
%Mem=1900MB
#P OB98/GEN NMR

erre ene a

0 1
  C       52.448      69.195     144.590
  O       52.882      68.200     143.679
  P       52.022      67.824     142.372
  C       51.103      69.215     140.393
  O       51.617      69.230     141.714
  C       50.049      70.310     140.219
  O       48.802      69.848     140.802
  C       50.407      71.645     140.886
  O       49.881      72.688     140.056
  C       49.655      71.578     142.201
  O       49.427      72.861     142.766
  C       48.385      70.833     141.771
  N       47.698      70.207     142.894
  C       46.397      70.628     143.177
  O       45.862      71.516     142.514
  N       45.723      70.029     144.213
  C       46.324      69.153     144.956
  N       45.596      68.547     145.933
  C       47.732      68.757     144.759
  C       48.342      69.302     143.709
  O       50.881      66.899     142.620
  O       53.103      67.270     141.335
  H       50.285      73.322     142.838
  H       53.296      66.307     141.457
  H       48.199      68.042     145.424
  H       49.368      69.053     143.473
  H       47.703      71.515     141.253
  H       50.233      70.990     142.922
  H       51.486      71.784     141.001
  H       49.874      70.452     139.145
  H       44.594      68.714     145.924
  H       50.635      68.241     140.215
  H       45.881      67.653     146.319
  H       51.923      69.340     139.677
  P       50.600      74.126     140.092
  C       53.042      74.999     140.021
  O       52.182      73.885     140.140
  O       50.289      74.604     141.594
  O       50.098      75.144     139.121
  H       50.307      75.580     141.625
  H       54.077      74.650     140.084
  H       52.865      75.709     140.836
  H       52.897      75.495     139.058
  H       53.160      69.288     145.383
  H       51.497      68.917     144.995
  H       52.358      70.131     144.080

 3  4  5  6  7  8  9  10  11  12  13  23  27  28  29  30  32 0
 6-311+G(2d,p)
 ****
 34  35 0
 6-311+G(2d,p)
 ****
 1  2  14  15  16  17  18  19  20  21  22  24  25  26 0
 3-21G
 ****
 31  33  36  37  38  39  40  41  42  43  44  45  46 0
 3-21G
 ****


