%nproc=1
%NoSave
%Mem=1900MB
#P OB98/GEN NMR

erre ene a

0 1
  C      178.531    -202.916     -31.348
  O      178.099    -204.077     -30.639
  P      177.374    -205.234     -31.487
  C      174.962    -204.365     -30.973
  O      175.962    -204.625     -31.946
  C      173.561    -204.538     -31.579
  O      172.557    -204.454     -30.518
  C      173.197    -203.496     -32.646
  O      172.420    -204.181     -33.639
  C      172.327    -202.513     -31.884
  O      171.489    -201.761     -32.749
  C      171.594    -203.464     -30.929
  N      171.007    -202.771     -29.782
  C      169.653    -202.463     -29.854
  O      168.973    -202.671     -30.857
  N      169.120    -201.853     -28.750
  C      169.812    -201.464     -27.636
  O      169.279    -200.924     -26.674
  C      171.262    -201.718     -27.666
  C      171.784    -202.347     -28.723
  O      177.003    -206.283     -30.341
  O      178.233    -205.771     -32.589
  H      176.740    -205.865     -29.502
  H      170.943    -202.375     -33.279
  H      168.132    -201.650     -28.767
  H      171.851    -201.370     -26.824
  H      172.851    -202.525     -28.783
  H      170.789    -203.988     -31.460
  H      172.960    -201.816     -31.324
  H      174.075    -203.045     -33.109
  H      173.498    -205.545     -32.001
  H      175.061    -203.342     -30.602
  H      175.109    -205.032     -30.115
  P      173.027    -204.307     -35.127
  C      172.056    -202.101     -36.158
  O      173.182    -202.819     -35.697
  O      171.741    -204.858     -35.909
  O      174.212    -205.204     -35.252
  H      170.927    -204.367     -35.702
  H      172.330    -201.053     -36.280
  H      171.227    -202.168     -35.449
  H      171.742    -202.495     -37.134
  H      178.993    -202.233     -30.666
  H      177.688    -202.445     -31.808
  H      179.236    -203.200     -32.101

 3  4  5  6  7  8  9  10  11  12  13  24  28  29  30  31  32 0
 6-311+G(2d,p)
 ****
 33  34 0
 6-311+G(2d,p)
 ****
 1  2  14  15  16  17  18  19  20  21  22  23  25  26  27 0
 3-21G
 ****
 35  36  37  38  39  40  41  42  43  44  45 0
 3-21G
 ****


