%nproc=1
%NoSave
%Mem=1900MB
#P OB98/GEN NMR

erre ene a

0 1
  C     -385.793     159.264    -325.588
  O     -386.532     158.836    -324.458
  H     -386.171     160.241    -325.906
  H     -385.908     158.562    -326.418
  H     -384.735     159.364    -325.333
  P     -386.268     157.360    -323.895
  C     -386.559     154.971    -324.852
  O     -386.802     156.365    -325.031
  C     -386.982     154.205    -326.102
  O     -386.184     154.616    -327.233
  C     -386.772     152.697    -325.978
  O     -387.780     152.118    -325.169
  C     -386.784     152.289    -327.437
  O     -388.118     152.192    -327.943
  C     -386.027     153.465    -328.094
  N     -384.611     153.172    -328.318
  C     -384.243     152.892    -329.636
  O     -385.086     152.908    -330.535
  N     -382.929     152.582    -329.900
  C     -382.063     152.565    -328.934
  N     -380.781     152.249    -329.260
  C     -382.407     152.867    -327.531
  C     -383.686     153.154    -327.297
  O     -386.781     157.058    -322.522
  O     -384.674     157.201    -323.990
  H     -388.492     153.094    -327.902
  H     -384.253     157.505    -323.166
  H     -381.649     152.849    -326.758
  H     -384.023     153.391    -326.295
  H     -386.475     153.725    -329.058
  H     -386.301     151.322    -327.580
  H     -385.777     152.486    -325.568
  H     -388.031     154.440    -326.316
  H     -380.592     152.041    -330.236
  H     -387.154     154.652    -323.992
  H     -380.008     152.292    -328.612
  H     -385.498     154.788    -324.634
  P     -387.649     150.596    -324.676
  C     -387.252     148.395    -325.968
  O     -387.810     149.701    -326.007
  O     -388.532     150.217    -323.539
  O     -386.088     150.451    -324.345
  H     -385.851     150.913    -323.503
  H     -387.423     147.906    -326.904
  H     -387.713     147.834    -325.182
  H     -386.199     148.462    -325.788

 6  7  8  9  10  11  12  13  14  15  16  26  30  31  32  33  35 0
 6-311+G(2d,p)
 ****
 37  38 0
 6-311+G(2d,p)
 ****
 1  2  3  4  5  17  18  19  20  21  22  23  24  25 0
 3-21G
 ****
 27  28  29  34  36  39  40  41  42  43  44  45  46 0
 3-21G
 ****


