%nproc=1
%NoSave
%Mem=1900MB
#P OB98/GEN NMR

erre ene a

0 1
  C      -43.572    -294.982     428.443
  O      -43.379    -293.673     428.945
  P      -43.400    -293.393     430.525
  C      -41.487    -291.665     430.457
  O      -41.902    -292.956     430.903
  C      -40.079    -291.723     429.861
  O      -40.107    -292.336     428.557
  C      -39.430    -290.357     429.666
  O      -38.953    -289.854     430.898
  C      -38.339    -290.696     428.654
  O      -37.179    -291.240     429.305
  C      -39.028    -291.769     427.782
  N      -39.502    -291.227     426.510
  C      -38.656    -291.425     425.414
  O      -37.573    -291.997     425.551
  N      -39.033    -290.929     424.185
  C      -40.147    -290.268     424.082
  N      -40.467    -289.790     422.847
  C      -41.054    -290.011     425.220
  C      -40.669    -290.513     426.392
  O      -43.977    -294.490     431.359
  O      -44.212    -292.016     430.629
  H      -37.507    -291.711     430.099
  H      -45.184    -292.157     430.480
  H      -41.959    -289.448     425.081
  H      -41.270    -290.367     427.283
  H      -38.337    -292.589     427.567
  H      -38.012    -289.813     428.100
  H      -40.151    -289.668     429.214
  H      -39.463    -292.354     430.520
  H      -39.810    -289.962     422.097
  H      -41.489    -290.987     431.314
  H      -41.290    -289.240     422.658
  H      -42.208    -291.291     429.719
  P      -39.254    -288.335     431.306
  C      -40.455    -289.169     433.416
  O      -40.525    -288.325     432.281
  O      -39.316    -287.367     430.169
  O      -38.041    -287.968     432.293
  H      -37.699    -287.081     432.061
  H      -41.192    -288.837     434.147
  H      -39.461    -289.137     433.871
  H      -40.686    -290.200     433.118
  H      -43.524    -294.965     427.374
  H      -44.530    -295.344     428.751
  H      -42.808    -295.626     428.824

 3  4  5  6  7  8  9  10  11  12  13  23  27  28  29  30  32 0
 6-311+G(2d,p)
 ****
 34  35 0
 6-311+G(2d,p)
 ****
 1  2  14  15  16  17  18  19  20  21  22  24  25  26 0
 3-21G
 ****
 31  33  36  37  38  39  40  41  42  43  44  45  46 0
 3-21G
 ****


