%nproc=1
%NoSave
%Mem=1900MB
#P OB98/GEN NMR

erre ene a

0 1
  C     -321.993    -735.674     915.124
  O     -322.428    -736.990     915.436
  P     -324.017    -737.230     915.531
  C     -324.298    -739.175     913.801
  O     -324.270    -738.770     915.162
  C     -323.821    -740.620     913.682
  O     -322.382    -740.690     913.829
  C     -324.401    -741.560     914.737
  O     -325.692    -741.988     914.358
  C     -323.364    -742.686     914.749
  O     -323.580    -743.598     913.660
  C     -322.055    -741.898     914.557
  N     -319.816    -743.803     918.691
  C     -320.551    -744.427     917.696
  N     -320.662    -745.771     917.800
  N     -321.113    -743.816     916.689
  C     -320.933    -742.472     916.729
  C     -320.242    -741.718     917.659
  C     -319.581    -742.429     918.732
  O     -318.845    -741.928     919.568
  N     -320.301    -740.390     917.369
  C     -320.981    -740.331     916.249
  N     -321.384    -741.561     915.808
  O     -324.581    -736.428     914.260
  O     -324.652    -736.784     916.809
  H     -322.829    -744.219     913.611
  H     -324.917    -735.553     914.519
  H     -319.390    -744.338     919.424
  H     -321.207    -739.411     915.710
  H     -321.326    -742.461     913.955
  H     -323.410    -743.279     915.668
  H     -320.270    -746.323     918.557
  H     -324.428    -741.070     915.720
  H     -321.200    -746.262     917.094
  H     -324.063    -740.979     912.674
  H     -323.629    -738.530     913.216
  H     -325.319    -739.075     913.426
  P     -326.664    -742.529     915.506
  C     -327.704    -740.344     916.443
  O     -327.876    -741.501     915.650
  O     -325.805    -742.296     916.854
  O     -327.052    -743.959     915.367
  H     -325.973    -743.036     917.479
  H     -328.323    -739.542     916.046
  H     -326.660    -740.013     916.466
  H     -328.019    -740.554     917.475
  H     -320.924    -735.650     915.092
  H     -322.342    -734.996     915.874
  H     -322.385    -735.385     914.171

 3  4  5  6  7  8  9  10  11  12  23  26  30  31 0
 6-311+G(2d,p)
 ****
 33  35  36  37  38 0
 6-311+G(2d,p)
 ****
 1  2  13  14  15  16  17  18  19  20  21  22  24  25 0
 3-21G
 ****
 27  28  29  32  34  39  40  41  42  43  44  45  46  47  48  49 0
 3-21G
 ****


