%nproc=1
%NoSave
%Mem=1900MB
#P OB98/GEN NMR

erre ene a

0 1
  C     -179.848     -16.968    -463.630
  O     -180.558     -18.056    -464.197
  P     -179.861     -18.882    -465.379
  C     -177.930     -20.054    -464.098
  O     -178.303     -19.041    -465.020
  C     -176.428     -20.331    -464.174
  O     -176.091     -20.824    -465.497
  C     -175.562     -19.093    -463.916
  O     -174.353     -19.490    -463.251
  C     -175.182     -18.633    -465.307
  O     -173.987     -17.853    -465.294
  C     -175.055     -19.974    -466.030
  N     -172.554     -20.093    -470.418
  C     -172.159     -20.537    -469.173
  N     -170.892     -20.994    -469.070
  N     -172.937     -20.537    -468.123
  C     -174.176     -20.046    -468.374
  C     -174.688     -19.590    -469.569
  C     -173.812     -19.585    -470.719
  O     -174.090     -19.180    -471.842
  N     -175.995     -19.204    -469.437
  C     -176.265     -19.380    -468.160
  N     -175.182     -19.855    -467.466
  O     -179.862     -17.837    -466.593
  O     -180.563     -20.142    -465.757
  H     -174.203     -17.010    -464.848
  H     -180.545     -18.086    -467.244
  H     -171.912     -20.101    -471.195
  H     -177.212     -19.158    -467.684
  H     -174.093     -20.455    -465.816
  H     -175.984     -18.021    -465.733
  H     -170.223     -20.957    -469.825
  H     -176.054     -18.308    -463.334
  H     -170.564     -21.283    -468.158
  H     -176.183     -21.129    -463.464
  H     -178.474     -20.969    -464.334
  H     -178.204     -19.745    -463.084
  P     -174.063     -18.782    -461.839
  C     -175.398     -20.520    -460.435
  O     -175.284     -19.187    -460.889
  O     -174.315     -17.234    -462.146
  O     -172.697     -19.042    -461.294
  H     -173.805     -16.680    -461.525
  H     -175.305     -20.534    -459.346
  H     -174.630     -21.171    -460.865
  H     -176.381     -20.908    -460.712
  H     -180.439     -16.519    -462.859
  H     -179.642     -16.242    -464.389
  H     -178.927     -17.321    -463.214

 3  4  5  6  7  8  9  10  11  12  23  26  30  31 0
 6-311+G(2d,p)
 ****
 33  35  36  37  38 0
 6-311+G(2d,p)
 ****
 1  2  13  14  15  16  17  18  19  20  21  22  24  25 0
 3-21G
 ****
 27  28  29  32  34  39  40  41  42  43  44  45  46  47  48  49 0
 3-21G
 ****


