%nproc=1
%NoSave
%Mem=1900MB
#P OB98/GEN NMR

erre ene a

0 1
  C     -354.930      61.003    -347.580
  O     -354.534      59.872    -346.815
  P     -353.057      59.291    -347.050
  C     -351.806      58.394    -349.148
  O     -353.053      58.579    -348.490
  C     -351.982      57.571    -350.431
  O     -352.875      58.291    -351.325
  C     -350.675      57.309    -351.200
  O     -350.798      56.006    -351.789
  C     -350.707      58.398    -352.260
  O     -349.818      58.169    -353.348
  C     -352.192      58.414    -352.598
  N     -352.708      60.648    -357.175
  C     -352.336      59.399    -356.819
  N     -352.229      58.872    -355.576
  C     -352.563      59.779    -354.645
  C     -352.940      61.098    -354.853
  C     -353.013      61.530    -356.191
  N     -353.382      62.815    -356.546
  N     -353.181      61.738    -353.651
  C     -352.950      60.819    -352.731
  N     -352.599      59.614    -353.281
  O     -352.989      58.060    -346.032
  O     -351.946      60.273    -346.828
  H     -349.995      57.289    -353.737
  H     -352.103      57.992    -345.622
  H     -352.097      58.726    -357.638
  H     -353.009      60.982    -351.658
  H     -352.475      57.557    -353.222
  H     -350.399      59.350    -351.798
  H     -349.778      57.327    -350.565
  H     -352.465      56.626    -350.166
  H     -351.122      57.851    -348.481
  H     -353.207      63.076    -357.508
  H     -353.404      63.513    -355.809
  H     -351.357      59.375    -349.363
  P     -349.468      55.220    -352.233
  C     -347.689      55.687    -354.023
  O     -348.996      55.983    -353.567
  O     -350.101      53.872    -352.835
  O     -348.452      55.011    -351.154
  H     -350.799      54.068    -353.477
  H     -347.532      56.191    -354.980
  H     -347.575      54.604    -354.166
  H     -346.952      56.052    -353.312
  H     -355.931      61.277    -347.319
  H     -354.886      60.762    -348.622
  H     -354.271      61.821    -347.375

 3  4  5  6  7  8  9  10  11  12  22  25  29  30  31  32 0
 6-311+G(2d,p)
 ****
 33  36  37 0
 6-311+G(2d,p)
 ****
 1  2  13  14  15  16  17  18  19  20  21  23  24  26 0
 3-21G
 ****
 27  28  34  35  38  39  40  41  42  43  44  45  46  47  48 0
 3-21G
 ****


