%nproc=1
%NoSave
%Mem=1900MB
#P OB98/GEN NMR

erre ene a

0 1
  C      -13.440       9.940     -46.124
  O      -12.572       9.962     -47.237
  H      -13.950       8.974     -46.096
  H      -14.192      10.728     -46.219
  H      -12.884      10.068     -45.192
  P      -11.566      11.196     -47.407
  C      -12.159      12.081     -49.759
  O      -11.251      11.324     -48.973
  C      -12.640      11.269     -50.967
  O      -13.385      10.111     -50.481
  C      -13.577      12.043     -51.916
  O      -13.376      11.508     -53.232
  C      -14.934      11.651     -51.360
  O      -15.992      12.008     -52.213
  C      -14.682      10.157     -51.116
  N      -15.680       9.480     -50.297
  C      -16.741       8.862     -50.951
  O      -16.895       8.843     -52.171
  N      -17.659       8.246     -50.142
  C      -17.613       8.177     -48.781
  O      -18.448       7.583     -48.111
  C      -16.473       8.854     -48.147
  C      -15.569       9.460     -48.921
  O      -10.366      11.184     -46.521
  O      -12.489      12.476     -47.127
  H      -12.326      12.806     -46.223
  H      -15.939      11.467     -53.031
  H      -18.433       7.789     -50.598
  H      -16.411       8.829     -47.068
  H      -14.712       9.960     -48.483
  H      -14.589       9.633     -52.073
  H      -15.118      12.175     -50.420
  H      -13.384      13.119     -51.926
  H      -11.766      10.882     -51.504
  H      -11.644      12.984     -50.103
  H      -13.013      12.373     -49.139
  P      -13.121      12.420     -54.527
  C      -14.316      11.083     -56.394
  O      -13.073      11.459     -55.813
  O      -11.937      13.323     -54.409
  O      -14.469      13.260     -54.725
  H      -14.269      14.093     -55.191
  H      -14.138      10.447     -57.236
  H      -14.840      11.959     -56.713
  H      -14.904      10.560     -55.670

 6  7  8  9  10  11  12  13  14  15  16  27  31  32  33  34  35 0
 6-311+G(2d,p)
 ****
 36  37 0
 6-311+G(2d,p)
 ****
 1  2  3  4  5  17  18  19  20  21  22  23  24  25 0
 3-21G
 ****
 26  28  29  30  38  39  40  41  42  43  44  45 0
 3-21G
 ****


