%nproc=1
%NoSave
%Mem=1900MB
#P OB98/GEN NMR

erre ene a

0 1
  C     -164.075      55.981      -7.082
  O     -163.433      56.299      -8.301
  H     -165.013      55.468      -7.302
  H     -164.293      56.897      -6.524
  H     -163.442      55.322      -6.481
  P     -162.018      57.048      -8.188
  C     -163.055      59.420      -8.496
  O     -162.343      58.527      -7.655
  C     -163.468      60.674      -7.713
  O     -164.285      60.266      -6.575
  C     -162.283      61.471      -7.144
  O     -162.678      62.851      -7.059
  C     -162.163      60.889      -5.744
  O     -161.347      61.695      -4.927
  C     -163.644      60.783      -5.388
  N     -165.626      60.556      -0.680
  C     -165.574      61.556      -1.587
  N     -165.039      61.538      -2.824
  C     -164.539      60.325      -3.110
  C     -164.529      59.205      -2.290
  C     -165.101      59.353      -1.017
  N     -165.152      58.338      -0.090
  N     -163.923      58.140      -2.932
  C     -163.577      58.607      -4.114
  N     -163.920      59.924      -4.262
  O     -161.602      57.277      -9.716
  O     -160.965      56.320      -7.422
  H     -161.141      61.240      -4.084
  H     -161.011      56.557     -10.010
  H     -166.015      62.499      -1.273
  H     -163.071      58.045      -4.891
  H     -164.081      61.765      -5.173
  H     -161.697      59.900      -5.773
  H     -161.374      61.389      -7.746
  H     -164.101      61.302      -8.351
  H     -163.948      58.908      -8.872
  H     -162.425      59.711      -9.340
  H     -165.566      58.531       0.807
  H     -164.751      57.441      -0.322
  P     -162.247      63.862      -8.232
  C     -161.091      65.584      -6.636
  O     -160.970      64.702      -7.741
  O     -163.411      64.964      -8.166
  O     -162.156      63.270      -9.600
  H     -163.529      65.364      -9.048
  H     -160.148      66.056      -6.451
  H     -161.389      65.031      -5.770
  H     -161.826      66.330      -6.854

 6  7  8  9  10  11  12  13  14  15  25  28  32  33  34  35 0
 6-311+G(2d,p)
 ****
 36  37  40 0
 6-311+G(2d,p)
 ****
 1  2  3  4  5  16  17  18  19  20  21  22  23  24 0
 3-21G
 ****
 26  27  29  30  31  38  39 41  42  43  44  45  46  47  48 0
 3-21G
 ****


