%nproc=1
%NoSave
%Mem=1900MB
#P OB98/GEN NMR

erre ene a

0 1
  C      124.741     107.709      65.326
  O      125.394     107.959      64.088
  P      126.119     109.375      63.885
  C      128.503     108.369      64.046
  O      127.555     109.272      64.597
  C      129.890     109.006      63.966
  O      130.862     107.983      63.620
  C      130.018     110.123      62.925
  O      130.957     111.076      63.436
  C      130.632     109.411      61.733
  O      131.270     110.314      60.835
  C      131.569     108.442      62.449
  N      133.655     107.032      58.000
  C      133.459     108.247      58.555
  N      132.897     108.542      59.745
  C      132.515     107.421      60.381
  C      132.618     106.118      59.923
  C      133.224     105.937      58.669
  N      133.435     104.701      58.105
  N      132.089     105.239      60.845
  C      131.675     105.996      61.840
  N      131.934     107.318      61.614
  O      125.287     110.337      64.856
  O      126.129     109.889      62.487
  H      132.063     110.674      61.276
  H      124.773     110.978      64.328
  H      133.807     109.094      57.969
  H      131.186     105.640      62.734
  H      132.493     108.930      62.782
  H      129.852     108.877      61.180
  H      129.072     110.616      62.679
  H      130.156     109.379      64.963
  H      128.184     108.099      63.036
  H      133.996     104.645      57.272
  H      133.292     103.874      58.676
  H      128.539     107.460      64.654
  P      130.915     112.549      62.806
  C      129.486     113.452      64.772
  O      129.597     113.255      63.376
  O      130.568     112.282      61.265
  O      132.187     113.315      62.960
  H      130.930     112.999      60.713
  H      128.931     114.376      64.956
  H      130.466     113.526      65.254
  H      128.936     112.614      65.210
  H      124.308     106.731      65.310
  H      123.971     108.437      65.477
  H      125.452     107.771      66.123

 3  4  5  6  7  8  9  10  11  12  22  25  29  30  31  32 0
 6-311+G(2d,p)
 ****
 33  36  37 0
 6-311+G(2d,p)
 ****
 1  2  13  14  15  16  17  18  19  20  21  23  24  26 0
 3-21G
 ****
 27  28  34  35  38  39  40  41  42  43  44  45  46  47  48 0
 3-21G
 ****


