%nproc=1
%NoSave
%Mem=1900MB
#P OB98/GEN NMR

erre ene a

0 1
  C      229.889     -10.459    -184.026
  O      228.982      -9.848    -183.123
  P      228.398      -8.405    -183.513
  C      229.497      -6.033    -183.821
  O      229.659      -7.416    -183.542
  C      230.658      -5.235    -183.221
  O      230.519      -5.172    -181.784
  C      232.037      -5.832    -183.471
  O      232.490      -5.581    -184.789
  C      232.855      -5.154    -182.377
  O      233.220      -3.824    -182.780
  C      231.843      -5.099    -181.212
  N      232.050      -6.153    -180.217
  C      233.098      -5.952    -179.322
  O      233.823      -4.958    -179.342
  N      233.299      -6.956    -178.408
  C      232.613      -8.134    -178.343
  O      232.862      -9.017    -177.530
  C      231.538      -8.300    -179.336
  C      231.311      -7.317    -180.213
  O      227.617      -8.032    -182.167
  O      227.561      -8.426    -184.748
  H      228.008      -8.469    -181.389
  H      233.805      -3.919    -183.556
  H      234.037      -6.824    -177.731
  H      230.979      -9.226    -179.323
  H      230.530      -7.427    -180.957
  H      231.903      -4.126    -180.705
  H      233.781      -5.695    -182.145
  H      232.011      -6.913    -183.291
  H      230.608      -4.209    -183.612
  H      228.552      -5.690    -183.392
  H      229.457      -5.892    -184.909
  P      233.534      -6.646    -185.407
  C      235.790      -7.619    -184.520
  O      234.840      -6.575    -184.486
  O      233.961      -5.908    -186.765
  O      232.952      -8.010    -185.600
  H      234.108      -4.953    -186.648
  H      236.737      -7.241    -184.125
  H      235.950      -7.983    -185.537
  H      235.447      -8.443    -183.886
  H      230.193     -11.409    -183.638
  H      230.748      -9.832    -184.148
  H      229.411     -10.597    -184.973

 3  4  5  6  7  8  9  10  11  12  13  24  28  29  30  31  32 0
 6-311+G(2d,p)
 ****
 33  34 0
 6-311+G(2d,p)
 ****
 1  2  14  15  16  17  18  19  20  21  22  23  25  26  27 0
 3-21G
 ****
 35  36  37  38  39  40  41  42  43  44  45 0
 3-21G
 ****


