%nproc=1
%NoSave
%Mem=1900MB
#P OB98/GEN NMR

erre ene a

0 1
  C      357.777    -639.628     436.107
  O      358.435    -638.483     435.607
  H      357.678    -640.358     435.292
  H      356.783    -639.386     436.487
  H      358.379    -640.090     436.906
  P      358.477    -637.174     436.538
  C      356.675    -635.658     437.614
  O      356.960    -636.653     436.627
  C      355.169    -635.563     437.881
  O      354.606    -636.874     438.042
  C      354.818    -634.808     439.153
  O      355.088    -633.422     439.102
  C      353.405    -635.287     439.443
  O      352.400    -634.542     438.764
  C      353.439    -636.739     438.888
  N      353.425    -637.737     439.958
  C      352.498    -637.514     440.972
  O      351.750    -636.538     441.014
  N      352.498    -638.432     441.989
  C      353.350    -639.501     442.113
  O      353.323    -640.260     443.061
  C      354.325    -639.660     441.012
  C      354.314    -638.793     440.010
  O      359.450    -636.115     436.126
  O      358.748    -637.758     438.006
  H      352.632    -633.602     438.842
  H      359.053    -637.052     438.620
  H      351.833    -638.296     442.735
  H      355.017    -640.499     441.076
  H      355.033    -638.886     439.183
  H      352.567    -636.922     438.253
  H      353.176    -635.244     440.516
  H      355.454    -635.209     439.962
  H      354.693    -635.100     437.006
  H      357.039    -634.702     437.230
  H      357.210    -635.902     438.536
  P      355.315    -632.529     440.405
  C      353.972    -631.937     442.541
  O      353.938    -632.486     441.240
  O      356.070    -631.251     440.212
  O      356.233    -633.499     441.312
  H      356.856    -632.939     441.814
  H      352.992    -631.975     442.970
  H      354.300    -630.920     442.490
  H      354.649    -632.500     443.148

 6  7  8  9  10  11  12  13  14  15  16  26  31  32  33  34  35 0
 6-311+G(2d,p)
 ****
 36  37 0
 6-311+G(2d,p)
 ****
 1  2  3  4  5  17  18  19  20  21  22  23  24  25 0
 3-21G
 ****
 27  28  29  30  38  39  40  41  42  43  44  45 0
 3-21G
 ****


