%nproc=1
%NoSave
%Mem=1900MB
#P OB98/GEN NMR

erre ene a

0 1
  C     -805.013     775.238     112.627
  O     -804.056     774.366     113.217
  H     -805.105     776.127     113.253
  H     -805.992     774.754     112.556
  H     -804.679     775.537     111.632
  P     -803.955     772.864     112.644
  C     -802.703     773.726     110.556
  O     -803.849     773.023     111.037
  C     -801.828     772.818     109.681
  O     -802.613     772.211     108.627
  C     -800.707     773.564     108.955
  O     -799.699     774.077     109.792
  C     -800.336     772.555     107.869
  O     -799.442     771.548     108.348
  C     -801.725     771.922     107.531
  N     -802.245     772.401     106.252
  C     -801.733     771.792     105.122
  O     -800.848     770.922     105.145
  N     -802.220     772.252     103.925
  C     -803.119     773.252     103.768
  O     -803.522     773.621     102.664
  C     -803.612     773.882     104.997
  C     -803.165     773.435     106.180
  O     -805.032     771.917     113.092
  O     -802.480     772.405     113.055
  H     -799.307     770.913     107.629
  H     -802.377     771.419     112.972
  H     -801.865     771.810     103.098
  H     -804.333     774.692     104.917
  H     -803.501     773.885     107.102
  H     -801.635     770.832     107.488
  H     -799.852     773.040     107.009
  H     -801.154     774.420     108.423
  H     -801.435     772.021     110.306
  H     -802.122     774.067     111.418
  H     -803.037     774.599     109.978
  P     -798.763     775.287     109.383
  C     -800.363     777.120     110.360
  O     -799.650     776.618     109.228
  O     -797.735     775.019     108.333
  O     -797.980     775.583     110.774
  H     -797.084     775.860     110.543
  H     -800.897     778.005     110.082
  H     -799.671     777.352     111.143
  H     -801.055     776.379     110.703

 6  7  8  9  10  11  12  13  14  15  16  26  31  32  33  34  35 0
 6-311+G(2d,p)
 ****
 36  37 0
 6-311+G(2d,p)
 ****
 1  2  3  4  5  17  18  19  20  21  22  23  24  25 0
 3-21G
 ****
 27  28  29  30  38  39  40  41  42  43  44  45 0
 3-21G
 ****


