%nproc=1
%NoSave
%Mem=1900MB
#P OB98/GEN NMR

erre ene a

0 1
  C     -149.379    -238.844     -51.200
  O     -148.312    -239.726     -50.902
  H     -148.996    -238.019     -51.808
  H     -149.794    -238.436     -50.274
  H     -150.160    -239.364     -51.761
  P     -148.709    -241.117     -50.217
  C     -149.858    -243.279     -51.162
  O     -149.731    -241.864     -51.212
  C     -151.203    -243.705     -51.743
  O     -152.291    -243.146     -50.981
  C     -151.461    -243.209     -53.155
  O     -150.688    -243.891     -54.120
  C     -152.955    -243.470     -53.280
  O     -153.227    -244.821     -53.667
  C     -153.456    -243.200     -51.839
  N     -154.257    -241.992     -51.764
  C     -155.471    -242.035     -52.465
  O     -155.800    -243.056     -53.068
  N     -156.254    -240.908     -52.488
  C     -155.851    -239.829     -51.894
  N     -156.659    -238.739     -51.986
  C     -154.579    -239.741     -51.148
  C     -153.837    -240.850     -51.124
  O     -149.649    -240.652     -49.011
  O     -147.555    -241.963     -49.802
  H     -152.610    -245.028     -54.399
  H     -150.342    -240.024     -49.272
  H     -154.295    -238.823     -50.659
  H     -152.889    -240.875     -50.601
  H     -154.068    -244.038     -51.483
  H     -153.415    -242.825     -54.033
  H     -151.299    -242.125     -53.209
  H     -151.268    -244.801     -51.688
  H     -157.494    -238.828     -52.554
  H     -149.758    -243.638     -50.132
  H     -156.413    -237.827     -51.632
  H     -149.037    -243.709     -51.744
  P     -150.425    -243.264     -55.571
  C     -149.514    -241.029     -56.474
  O     -150.031    -241.720     -55.341
  O     -151.515    -243.479     -56.567
  O     -149.020    -243.907     -55.993
  H     -148.280    -243.706     -55.392
  H     -149.289    -240.018     -56.203
  H     -150.242    -241.035     -57.258
  H     -148.622    -241.515     -56.812

 6  7  8  9  10  11  12  13  14  15  16  26  30  31  32  33  35 0
 6-311+G(2d,p)
 ****
 37  38 0
 6-311+G(2d,p)
 ****
 1  2  3  4  5  17  18  19  20  21  22  23  24  25 0
 3-21G
 ****
 27  28  29  34  36  39  40  41  42  43  44  45  46 0
 3-21G
 ****


