%nproc=1
%NoSave
%Mem=1900MB
#P OB98/GEN NMR

erre ene a

0 1
  C     -451.637    -265.621     409.303
  O     -451.330    -265.179     410.632
  P     -452.150    -264.000     411.352
  C     -450.887    -261.938     410.452
  O     -451.160    -262.755     411.588
  C     -450.026    -260.726     410.823
  O     -450.788    -259.768     411.577
  C     -448.803    -261.059     411.669
  O     -447.765    -261.589     410.868
  C     -448.498    -259.698     412.296
  O     -447.772    -258.870     411.373
  C     -449.907    -259.134     412.525
  N     -448.877    -258.412     417.483
  C     -448.206    -258.060     416.358
  N     -448.546    -258.290     415.076
  C     -449.725    -258.941     415.003
  C     -450.509    -259.370     416.058
  C     -450.045    -259.082     417.355
  N     -450.718    -259.451     418.494
  N     -451.635    -260.026     415.597
  C     -451.531    -259.980     414.282
  N     -450.393    -259.338     413.879
  O     -452.894    -264.433     412.572
  O     -453.159    -263.461     410.229
  H     -447.609    -258.016     411.810
  H     -453.957    -263.093     410.655
  H     -447.278    -257.517     416.516
  H     -452.250    -260.393     413.589
  H     -449.950    -258.060     412.316
  H     -447.900    -259.775     413.208
  H     -449.076    -261.767     412.459
  H     -449.721    -260.240     409.886
  H     -451.843    -261.598     410.036
  H     -450.300    -259.237     419.385
  H     -451.566    -259.994     418.410
  H     -450.372    -262.550     409.703
  P     -447.696    -263.165     410.584
  C     -446.956    -263.723     412.976
  O     -446.621    -263.782     411.602
  O     -447.516    -263.558     409.155
  O     -449.087    -263.713     411.165
  H     -449.353    -264.507     410.660
  H     -446.736    -262.721     413.358
  H     -446.343    -264.447     413.516
  H     -448.011    -263.958     413.135
  H     -450.969    -266.410     409.026
  H     -451.526    -264.804     408.621
  H     -452.645    -265.979     409.270

 3  4  5  6  7  8  9  10  11  12  22  25  29  30  31  32 0
 6-311+G(2d,p)
 ****
 33  36  37 0
 6-311+G(2d,p)
 ****
 1  2  13  14  15  16  17  18  19  20  21  23  24  26 0
 3-21G
 ****
 27  28  34  35  38  39  40  41  42  43  44  45  46  47  48 0
 3-21G
 ****


