%nproc=1
%NoSave
%Mem=1900MB
#P OB98/GEN NMR

erre ene a

0 1
  C     1170.962     665.286    -556.420
  O     1171.430     664.654    -555.250
  H     1170.566     666.272    -556.156
  H     1170.153     664.702    -556.878
  H     1171.771     665.417    -557.142
  P     1171.987     663.160    -555.360
  C     1171.003     660.820    -554.823
  O     1170.732     662.179    -555.122
  C     1170.259     659.891    -555.782
  O     1168.836     660.027    -555.594
  C     1170.501     660.199    -557.262
  O     1171.778     659.731    -557.662
  C     1169.318     659.471    -557.897
  O     1169.559     658.064    -557.971
  C     1168.200     659.789    -556.875
  N     1167.372     660.932    -557.265
  C     1166.280     660.643    -558.090
  O     1166.067     659.499    -558.485
  N     1165.470     661.689    -558.481
  C     1165.698     662.881    -558.041
  N     1164.842     663.877    -558.452
  C     1166.795     663.228    -557.124
  C     1167.594     662.211    -556.795
  O     1173.186     662.827    -554.519
  O     1172.303     662.973    -556.923
  H     1169.532     657.724    -557.066
  H     1173.229     663.177    -557.113
  H     1166.953     664.233    -556.778
  H     1168.436     662.367    -556.117
  H     1167.540     658.917    -556.751
  H     1169.118     659.823    -558.905
  H     1170.396     661.267    -557.464
  H     1170.530     658.862    -555.543
  H     1164.092     663.585    -559.079
  H     1170.668     660.650    -553.799
  H     1164.817     664.808    -558.057
  H     1172.085     660.625    -554.873
  P     1172.746     660.611    -558.585
  C     1174.027     660.020    -560.742
  O     1172.828     659.844    -559.981
  O     1174.053     660.969    -557.962
  O     1171.850     661.885    -558.951
  H     1171.811     662.523    -558.194
  H     1173.959     659.458    -561.650
  H     1174.865     659.676    -560.172
  H     1174.154     661.057    -560.973

 6  7  8  9  10  11  12  13  14  15  16  26  30  31  32  33  35 0
 6-311+G(2d,p)
 ****
 37  38 0
 6-311+G(2d,p)
 ****
 1  2  3  4  5  17  18  19  20  21  22  23  24  25 0
 3-21G
 ****
 27  28  29  34  36  39  40  41  42  43  44  45  46 0
 3-21G
 ****


