%nproc=1
%NoSave
%Mem=1900MB
#P OB98/GEN NMR

erre ene a

0 1
  C      -50.316     -49.510     -21.192
  O      -49.477     -50.642     -21.108
  H      -50.840     -49.392     -20.239
  H      -51.057     -49.639     -21.984
  H      -49.725     -48.609     -21.377
  P      -48.641     -51.078     -22.403
  C      -46.986     -49.307     -21.517
  O      -47.559     -49.922     -22.667
  C      -45.768     -48.468     -21.921
  O      -44.712     -49.382     -22.303
  C      -46.059     -47.543     -23.111
  O      -45.719     -46.182     -22.858
  C      -45.363     -48.239     -24.274
  O      -44.971     -47.383     -25.326
  C      -44.210     -48.984     -23.592
  N      -43.731     -50.144     -24.340
  C      -42.744     -49.923     -25.296
  O      -42.228     -48.836     -25.543
  N      -42.333     -51.034     -25.989
  C      -42.805     -52.301     -25.829
  O      -42.394     -53.258     -26.475
  C      -43.861     -52.467     -24.820
  C      -44.271     -51.397     -24.133
  O      -49.450     -51.459     -23.597
  O      -47.742     -52.300     -21.890
  H      -45.776     -46.938     -25.663
  H      -48.130     -53.141     -22.195
  H      -41.611     -50.887     -26.676
  H      -44.266     -53.458     -24.674
  H      -45.048     -51.483     -23.380
  H      -43.363     -48.317     -23.436
  H      -46.060     -48.972     -24.701
  H      -47.135     -47.499     -23.317
  H      -45.421     -47.907     -21.046
  H      -46.690     -50.098     -20.823
  H      -47.732     -48.667     -21.033
  P      -46.775     -44.994     -22.715
  C      -45.620     -43.605     -20.814
  O      -46.698     -44.436     -21.217
  O      -48.133     -45.267     -23.265
  O      -46.121     -43.809     -23.594
  H      -46.867     -43.304     -23.978
  H      -45.743     -43.335     -19.786
  H      -45.607     -42.720     -21.416
  H      -44.697     -44.133     -20.936

 6  7  8  9  10  11  12  13  14  15  16  26  31  32  33  34  35 0
 6-311+G(2d,p)
 ****
 36  37 0
 6-311+G(2d,p)
 ****
 1  2  3  4  5  17  18  19  20  21  22  23  24  25 0
 3-21G
 ****
 27  28  29  30  38  39  40  41  42  43  44  45 0
 3-21G
 ****


