%nproc=1
%NoSave
%Mem=1900MB
#P OB98/GEN NMR

erre ene a

0 1
  C     -110.690     139.492     183.544
  O     -111.813     140.337     183.405
  H     -110.831     138.611     182.919
  H     -110.589     139.175     184.585
  H     -109.779     140.011     183.225
  P     -111.759     141.755     184.153
  C     -112.793     141.391     186.518
  O     -111.618     141.431     185.720
  C     -112.496     140.688     187.844
  O     -111.412     141.391     188.514
  C     -113.693     140.674     188.806
  O     -113.701     139.435     189.521
  C     -113.385     141.817     189.757
  O     -114.035     141.699     191.019
  C     -111.861     141.727     189.840
  N     -111.249     142.976     190.296
  C     -111.343     143.281     191.647
  O     -111.839     142.549     192.500
  N     -110.836     144.507     192.012
  C     -110.288     145.437     191.178
  O     -109.873     146.518     191.562
  C     -110.221     145.057     189.756
  C     -110.700     143.866     189.387
  O     -113.261     142.297     184.027
  O     -110.754     142.725     183.630
  H     -113.367     142.827     183.216
  H     -113.597     142.315     191.643
  H     -110.900     144.744     192.993
  H     -109.795     145.768     189.063
  H     -110.677     143.561     188.346
  H     -111.565     140.908     190.505
  H     -113.695     142.769     189.308
  H     -114.648     140.807     188.296
  H     -112.140     139.669     187.639
  H     -113.570     140.838     185.985
  H     -113.139     142.413     186.699
  P     -114.920     138.427     189.239
  C     -116.458     139.158     191.224
  O     -116.231     139.147     189.825
  O     -114.612     137.253     190.279
  O     -115.005     138.007     187.809
  H     -114.244     137.566     191.124
  H     -117.370     139.676     191.433
  H     -115.646     139.654     191.713
  H     -116.529     138.152     191.582

 6  7  8  9  10  11  12  13  14  15  16  27  31  32  33  34  35 0
 6-311+G(2d,p)
 ****
 36  37 0
 6-311+G(2d,p)
 ****
 1  2  3  4  5  17  18  19  20  21  22  23  24  25 0
 3-21G
 ****
 26  28  29  30  38  39  40  41  42  43  44  45 0
 3-21G
 ****


