%nproc=1
%NoSave
%Mem=1900MB
#P OB98/GEN NMR

erre ene a

0 1
  C     -221.738     148.300     -71.058
  O     -221.388     147.417     -72.108
  H     -220.904     148.356     -70.355
  H     -222.619     147.924     -70.530
  H     -221.935     149.297     -71.456
  P     -222.481     147.215     -73.265
  C     -223.517     145.057     -74.253
  O     -222.932     145.683     -73.118
  C     -223.722     143.567     -73.994
  O     -222.462     142.871     -74.005
  C     -224.360     143.245     -72.648
  O     -225.768     143.415     -72.703
  C     -223.973     141.782     -72.494
  O     -224.859     140.959     -73.278
  C     -222.557     141.745     -73.093
  N     -217.510     141.151     -72.373
  C     -218.311     140.837     -73.413
  N     -219.648     140.984     -73.519
  C     -220.160     141.517     -72.398
  C     -219.466     141.889     -71.256
  C     -218.075     141.696     -71.271
  N     -217.259     142.027     -70.211
  N     -220.325     142.400     -70.306
  C     -221.509     142.387     -70.885
  N     -221.467     141.829     -72.138
  O     -222.070     147.656     -74.627
  O     -223.731     148.000     -72.645
  H     -224.915     141.354     -74.167
  H     -223.787     147.849     -71.685
  H     -217.810     140.412     -74.279
  H     -222.419     142.782     -70.450
  H     -222.387     140.834     -73.679
  H     -224.052     141.439     -71.459
  H     -223.904     143.824     -71.840
  H     -224.323     143.163     -74.819
  H     -222.884     145.198     -75.134
  H     -216.306     141.699     -70.237
  H     -217.696     142.316     -69.348
  H     -224.479     145.544     -74.436
  P     -226.545     144.175     -71.525
  C     -226.759     143.925     -68.976
  O     -226.128     143.446     -70.157
  O     -228.013     144.317     -71.729
  O     -225.819     145.594     -71.415
  H     -226.473     146.296     -71.232
  H     -226.406     143.369     -68.133
  H     -227.819     143.806     -69.064
  H     -226.527     144.961     -68.843

 6  7  8  9  10  11  12  13  14  15  25  28  32  33  34  35 0
 6-311+G(2d,p)
 ****
 36  39  40 0
 6-311+G(2d,p)
 ****
 1  2  3  4  5  16  17  18  19  20  21  22  23  24 0
 3-21G
 ****
 26  27  29  30  31  37  38  41  42  43  44  45  46  47 0
 3-21G
 ****
 48 0
 3-21G
 ****


