%nproc=1
%NoSave
%Mem=1900MB
#P OB98/GEN NMR

erre ene a

0 1
  C      -80.610     177.982     -27.236
  O      -79.715     177.017     -27.751
  H      -81.375     178.189     -27.988
  H      -80.079     178.910     -27.008
  H      -81.095     177.602     -26.332
  P      -78.451     176.654     -26.827
  C      -78.281     174.163     -27.588
  O      -77.726     175.469     -27.635
  C      -77.497     173.237     -28.512
  O      -77.821     173.503     -29.893
  C      -75.984     173.393     -28.412
  O      -75.434     172.741     -27.279
  C      -75.555     172.732     -29.709
  O      -75.648     171.302     -29.575
  C      -76.625     173.270     -30.686
  N      -76.215     174.498     -31.369
  C      -77.024     174.927     -32.428
  O      -78.019     174.284     -32.757
  N      -76.668     176.063     -33.115
  C      -75.604     176.720     -32.770
  N      -75.291     177.829     -33.493
  C      -74.733     176.312     -31.652
  C      -75.092     175.207     -31.005
  O      -79.101     175.881     -25.585
  O      -77.567     177.793     -26.449
  H      -75.290     170.918     -30.397
  H      -78.388     175.503     -25.016
  H      -73.851     176.886     -31.409
  H      -74.499     174.845     -30.173
  H      -76.878     172.518     -31.442
  H      -74.525     172.963     -29.987
  H      -75.684     174.447     -28.440
  H      -77.806     172.206     -28.297
  H      -75.871     178.048     -34.292
  H      -79.326     174.221     -27.908
  H      -74.395     178.295     -33.416
  H      -78.241     173.775     -26.565
  P      -74.580     173.629     -26.249
  C      -75.110     172.260     -24.107
  O      -74.129     172.658     -25.054
  O      -75.690     174.557     -25.568
  O      -73.481     174.433     -26.870
  H      -75.352     175.461     -25.421
  H      -74.662     171.619     -23.377
  H      -75.897     171.735     -24.608
  H      -75.511     173.126     -23.623

 6  7  8  9  10  11  12  13  14  15  16  26  30  31  32  33  35 0
 6-311+G(2d,p)
 ****
 37  38 0
 6-311+G(2d,p)
 ****
 1  2  3  4  5  17  18  19  20  21  22  23  24  25 0
 3-21G
 ****
 27  28  29  34  36  39  40  41  42  43  44  45  46 0
 3-21G
 ****


