%nproc=1
%NoSave
%Mem=1900MB
#P OB98/GEN NMR

erre ene a

0 1
  C      723.012     536.212     206.067
  O      722.694     535.299     207.092
  H      723.197     535.659     205.146
  H      723.914     536.768     206.334
  H      722.189     536.913     205.894
  P      722.032     535.848     208.441
  C      719.824     534.601     207.948
  O      720.441     535.846     208.223
  C      718.299     534.709     208.016
  O      717.904     535.179     209.332
  C      717.792     535.743     207.008
  O      716.467     535.449     206.562
  C      717.764     537.029     207.825
  O      716.891     538.016     207.284
  C      717.339     536.503     209.191
  N      716.404     540.602     212.061
  C      715.760     540.161     210.918
  N      714.731     540.938     210.478
  N      716.085     539.080     210.270
  C      717.167     538.453     210.787
  C      717.917     538.794     211.895
  C      717.509     539.982     212.634
  O      718.064     540.426     213.634
  N      718.953     537.928     212.093
  C      718.852     537.060     211.112
  N      717.771     537.325     210.294
  O      722.381     537.409     208.431
  O      722.498     535.192     209.706
  H      717.267     538.305     206.424
  H      722.385     537.765     209.335
  H      716.100     541.437     212.537
  H      719.515     536.218     210.947
  H      716.255     536.410     209.251
  H      718.774     537.452     207.823
  H      714.565     541.859     210.843
  H      718.450     535.828     206.135
  H      714.451     540.794     209.506
  H      717.842     533.722     207.881
  H      720.180     533.891     208.703
  H      720.140     534.230     206.969
  P      716.206     535.439     204.979
  C      716.322     532.822     205.104
  O      716.664     534.011     204.417
  O      717.306     536.458     204.404
  O      714.818     535.835     204.593
  H      716.875     537.300     204.147
  H      716.716     531.979     204.576
  H      715.257     532.739     205.165
  H      716.735     532.849     206.091

 6  7  8  9  10  11  12  13  14  15  26  29  33  34 0
 6-311+G(2d,p)
 ****
 36  38  39  40  41 0
 6-311+G(2d,p)
 ****
 1  2  3  4  5  16  17  18  19  20  21  22  23  24  25 0
 3-21G
 ****
 27  28  30  31  32  35  37  42  43  44  45  46  47 0
 3-21G
 ****
 48  49 0
 3-21G
 ****


