%nproc=1
%NoSave
%Mem=1900MB
#P OB98/GEN NMR

erre ene a

0 1
  C     -124.402      12.463     187.572
  O     -123.722      13.066     186.489
  H     -124.458      11.386     187.397
  H     -125.416      12.862     187.654
  H     -123.856      12.644     188.504
  P     -123.634      14.672     186.502
  C     -125.520      16.475     186.537
  O     -125.152      15.135     186.242
  C     -126.667      16.911     185.629
  O     -126.249      16.911     184.245
  C     -127.897      16.006     185.679
  O     -128.701      16.212     186.828
  C     -128.598      16.450     184.407
  O     -129.213      17.736     184.621
  C     -127.404      16.556     183.435
  N     -127.152      15.310     182.698
  C     -127.008      15.420     181.312
  O     -127.093      16.512     180.753
  N     -126.805      14.273     180.577
  C     -126.729      13.124     181.174
  N     -126.529      12.027     180.392
  C     -126.863      12.964     182.634
  C     -127.068      14.084     183.326
  O     -122.918      15.016     185.112
  O     -122.986      15.283     187.699
  H     -128.505      18.335     184.921
  H     -122.947      15.991     184.950
  H     -126.807      11.983     183.083
  H     -127.178      14.045     184.405
  H     -127.558      17.364     182.708
  H     -129.387      15.769     184.088
  H     -127.621      14.947     185.580
  H     -126.925      17.947     185.895
  H     -126.501      12.159     179.391
  H     -124.646      17.115     186.375
  H     -126.606      11.079     180.742
  H     -125.835      16.557     187.582
  P     -129.450      14.929     187.442
  C     -131.268      13.262     186.597
  O     -130.549      14.472     186.367
  O     -130.324      15.549     188.627
  O     -128.538      13.841     187.927
  H     -130.393      14.926     189.373
  H     -131.958      13.099     185.795
  H     -131.805      13.336     187.520
  H     -130.581      12.443     186.648

 6  7  8  9  10  11  12  13  14  15  16  26  30  31  32  33  35 0
 6-311+G(2d,p)
 ****
 37  38 0
 6-311+G(2d,p)
 ****
 1  2  3  4  5  17  18  19  20  21  22  23  24  25 0
 3-21G
 ****
 27  28  29  34  36  39  40  41  42  43  44  45  46 0
 3-21G
 ****


