%nproc=1
%NoSave
%Mem=1900MB
#P OB98/GEN NMR

erre ene a

0 1
  C      -73.047     -85.966    -222.837
  O      -72.371     -87.094    -222.322
  H      -74.123     -86.103    -222.690
  H      -72.849     -85.872    -223.909
  H      -72.734     -85.056    -222.318
  P      -70.768     -87.002    -222.251
  C      -68.931     -86.595    -224.042
  O      -70.241     -87.072    -223.766
  C      -68.451     -87.117    -225.392
  O      -68.220     -88.545    -225.324
  C      -69.436     -86.898    -226.535
  O      -69.334     -85.587    -227.074
  C      -68.947     -87.939    -227.528
  O      -67.756     -87.460    -228.189
  C      -68.606     -89.119    -226.608
  N      -70.304     -93.810    -227.505
  C      -69.121     -93.207    -227.890
  N      -68.272     -93.954    -228.626
  N      -68.800     -91.975    -227.584
  C      -69.747     -91.343    -226.851
  C      -70.956     -91.835    -226.407
  C      -71.295     -93.199    -226.747
  O      -72.318     -93.793    -226.410
  N      -71.643     -90.899    -225.682
  C      -70.866     -89.835    -225.703
  N      -69.705     -90.049    -226.406
  O      -70.341     -88.427    -221.649
  O      -70.225     -85.881    -221.431
  H      -67.410     -88.203    -228.716
  H      -69.565     -88.302    -221.068
  H      -70.507     -94.758    -227.776
  H      -71.091     -88.891    -225.227
  H      -67.754     -89.701    -226.976
  H      -69.680     -88.156    -228.307
  H      -68.483     -94.891    -228.939
  H      -70.464     -87.137    -226.234
  H      -67.386     -93.545    -228.894
  H      -67.486     -86.640    -225.615
  H      -68.249     -86.943    -223.255
  H      -68.942     -85.499    -224.043
  P      -70.679     -84.914    -227.648
  C      -72.391     -85.582    -229.489
  O      -71.117     -85.823    -228.895
  O      -70.142     -83.573    -228.338
  O      -71.734     -84.642    -226.630
  H      -70.863     -82.915    -228.397
  H      -72.540     -86.261    -230.302
  H      -72.431     -84.576    -229.853
  H      -73.159     -85.727    -228.758

 6  7  8  9  10  11  12  13  14  15  26  29  33  34 0
 6-311+G(2d,p)
 ****
 36  38  39  40  41 0
 6-311+G(2d,p)
 ****
 1  2  3  4  5  16  17  18  19  20  21  22  23  24  25 0
 3-21G
 ****
 27  28  30  31  32  35  37  42  43  44  45  46  47 0
 3-21G
 ****
 48  49 0
 3-21G
 ****


