%nproc=1
%NoSave
%Mem=1900MB
#P OB98/GEN NMR

erre ene a

0 1
  C     -757.844     182.826     243.387
  O     -758.101     183.981     244.157
  H     -758.617     182.741     242.615
  H     -757.896     181.930     244.016
  H     -756.869     182.886     242.896
  P     -757.030     184.416     245.263
  C     -757.439     186.955     245.049
  O     -756.516     185.885     244.875
  C     -757.654     187.678     243.718
  O     -758.288     186.790     242.762
  C     -758.563     188.897     243.814
  O     -757.892     189.998     244.388
  C     -758.960     189.081     242.360
  O     -757.938     189.769     241.630
  C     -759.099     187.617     241.884
  N     -760.482     187.154     241.854
  C     -761.063     187.004     240.594
  O     -760.475     187.281     239.556
  N     -762.356     186.562     240.585
  C     -763.150     186.363     241.683
  O     -764.339     186.055     241.619
  C     -762.497     186.552     242.983
  C     -761.220     186.934     243.017
  O     -755.948     183.426     245.545
  O     -757.927     184.689     246.573
  H     -757.156     189.183     241.621
  H     -757.814     183.943     247.192
  H     -762.802     186.468     239.685
  H     -763.082     186.392     243.883
  H     -760.709     187.086     243.970
  H     -758.677     187.497     240.879
  H     -759.878     189.656     242.257
  H     -759.459     188.653     244.402
  H     -756.669     187.961     243.318
  H     -757.029     187.654     245.779
  H     -758.388     186.552     245.427
  P     -758.168     190.411     245.907
  C     -755.666     190.868     246.271
  O     -756.816     190.172     246.743
  O     -759.401     189.810     246.518
  O     -758.287     192.005     245.862
  H     -759.171     192.283     246.167
  H     -754.829     190.638     246.896
  H     -755.851     191.922     246.296
  H     -755.454     190.567     245.266

 6  7  8  9  10  11  12  13  14  15  16  26  31  32  33  34  35 0
 6-311+G(2d,p)
 ****
 36  37 0
 6-311+G(2d,p)
 ****
 1  2  3  4  5  17  18  19  20  21  22  23  24  25 0
 3-21G
 ****
 27  28  29  30  38  39  40  41  42  43  44  45 0
 3-21G
 ****


