%nproc=1
%NoSave
%Mem=1900MB
#P OB98/GEN NMR

erre ene a

0 1
  C     -479.877     118.484     216.109
  O     -479.640     118.452     214.712
  P     -480.580     119.273     213.704
  C     -478.542     120.500     212.727
  O     -479.806     120.638     213.366
  C     -478.083     121.834     212.142
  O     -476.885     121.616     211.360
  C     -479.116     122.483     211.227
  O     -479.057     123.903     211.395
  C     -478.638     122.149     209.823
  O     -479.097     123.123     208.871
  C     -477.122     122.107     210.026
  N     -474.150     121.847     205.849
  C     -474.604     122.899     206.564
  N     -475.409     122.894     207.645
  C     -475.702     121.637     208.013
  C     -475.313     120.467     207.384
  C     -474.499     120.600     206.245
  N     -474.027     119.524     205.524
  N     -475.838     119.363     208.032
  C     -476.514     119.864     209.043
  N     -476.455     121.233     209.081
  O     -481.986     119.457     214.160
  O     -480.502     118.463     212.328
  H     -478.578     122.986     208.051
  H     -481.373     118.458     211.887
  H     -474.276     123.875     206.218
  H     -477.071     119.284     209.764
  H     -476.672     123.106     209.948
  H     -479.032     121.173     209.525
  H     -480.134     122.128     211.415
  H     -477.818     122.505     212.968
  H     -478.644     119.768     211.917
  H     -473.354     119.713     204.800
  H     -474.142     118.600     205.919
  H     -477.812     120.121     213.445
  P     -480.390     124.713     210.993
  C     -481.016     124.625     213.519
  O     -481.417     124.417     212.182
  O     -480.841     124.402     209.605
  O     -479.910     126.227     211.217
  H     -479.174     126.280     211.867
  H     -481.839     124.335     214.180
  H     -480.797     125.683     213.684
  H     -480.138     124.021     213.753
  H     -479.150     117.878     216.608
  H     -480.857     118.106     216.313
  H     -479.804     119.492     216.460

 3  4  5  6  7  8  9  10  11  12  22  25  29  30  31  32 0
 6-311+G(2d,p)
 ****
 33  36  37 0
 6-311+G(2d,p)
 ****
 1  2  13  14  15  16  17  18  19  20  21  23  24  26 0
 3-21G
 ****
 27  28  34  35  38  39  40  41  42  43  44  45  46  47  48 0
 3-21G
 ****


