%nproc=1
%NoSave
%Mem=1900MB
#P OB98/GEN NMR

erre ene a

0 1
  C     -370.158     817.463    -350.387
  O     -371.160     818.284    -350.957
  H     -370.057     816.569    -351.005
  H     -370.436     817.166    -349.374
  H     -369.208     817.998    -350.370
  P     -371.499     819.647    -350.170
  C     -370.596     821.253    -351.991
  O     -370.398     820.699    -350.695
  C     -370.208     822.741    -352.005
  O     -368.874     822.912    -351.542
  C     -370.293     823.395    -353.379
  O     -371.610     823.787    -353.670
  C     -369.377     824.590    -353.168
  O     -370.108     825.640    -352.499
  C     -368.283     824.038    -352.244
  N     -363.639     825.450    -353.894
  C     -364.676     826.176    -353.434
  N     -365.906     825.733    -353.067
  C     -365.997     824.403    -353.194
  C     -365.023     823.538    -353.672
  C     -363.785     824.098    -354.023
  N     -362.713     823.369    -354.501
  N     -365.471     822.238    -353.670
  C     -366.686     822.308    -353.157
  N     -367.061     823.606    -352.893
  O     -371.647     819.526    -348.697
  O     -372.830     820.117    -350.947
  H     -370.872     825.866    -353.072
  H     -372.733     819.964    -351.909
  H     -364.511     827.240    -353.352
  H     -367.330     821.448    -352.951
  H     -367.987     824.768    -351.474
  H     -369.003     825.021    -354.102
  H     -369.867     822.746    -354.156
  H     -370.873     823.250    -351.282
  H     -371.632     821.132    -352.306
  H     -361.947     823.869    -354.912
  H     -362.875     822.397    -354.704
  H     -369.960     820.686    -352.692
  P     -371.955     824.725    -354.928
  C     -372.483     822.671    -356.391
  O     -371.645     823.814    -356.212
  O     -371.280     826.052    -354.900
  O     -373.547     824.832    -354.930
  H     -373.836     825.583    -355.476
  H     -372.184     822.144    -357.273
  H     -373.500     822.987    -356.492
  H     -372.392     822.026    -355.542

 6  7  8  9  10  11  12  13  14  15  25  28  32  33  34  35 0
 6-311+G(2d,p)
 ****
 36  39  40 0
 6-311+G(2d,p)
 ****
 1  2  3  4  5  16  17  18  19  20  21  22  23  24 0
 3-21G
 ****
 26  27  29  30  31  37  38  41  42  43  44  45  46  47 0
 3-21G
 ****
 48 0
 3-21G
 ****


