%nproc=1
%NoSave
%Mem=1900MB
#P OB98/GEN NMR

erre ene a

0 1
  C     -434.930    -250.431     156.768
  O     -436.121    -251.006     156.237
  P     -435.992    -252.298     155.297
  C     -436.266    -254.205     157.110
  O     -435.475    -253.542     156.151
  C     -436.789    -255.524     156.515
  O     -435.702    -256.459     156.344
  C     -437.839    -256.206     157.387
  O     -439.144    -255.731     157.126
  C     -437.643    -257.665     157.024
  O     -438.267    -257.951     155.755
  C     -436.102    -257.746     156.898
  N     -435.317    -257.995     158.124
  C     -435.476    -259.191     158.820
  O     -436.248    -260.087     158.487
  N     -434.697    -259.350     159.936
  C     -433.672    -258.534     160.327
  O     -432.969    -258.755     161.302
  C     -433.447    -257.361     159.478
  C     -434.267    -257.142     158.443
  O     -434.761    -251.950     154.342
  O     -437.233    -252.620     154.518
  H     -438.184    -258.912     155.605
  H     -435.058    -251.875     153.415
  H     -434.850    -260.178     160.490
  H     -432.620    -256.713     159.722
  H     -434.108    -256.274     157.808
  H     -435.814    -258.520     156.176
  H     -438.119    -258.324     157.748
  H     -437.582    -256.088     158.446
  H     -437.216    -255.311     155.521
  H     -437.107    -253.580     157.422
  H     -435.671    -254.402     158.008
  P     -439.634    -254.350     157.776
  C     -439.634    -253.074     155.551
  O     -439.050    -253.192     156.832
  O     -439.379    -254.187     159.238
  O     -441.204    -254.313     157.434
  H     -441.733    -254.649     158.194
  H     -439.263    -252.163     155.073
  H     -440.727    -253.014     155.631
  H     -439.355    -253.933     154.934
  H     -435.181    -249.583     157.370
  H     -434.294    -250.122     155.965
  H     -434.421    -251.156     157.368

 3  4  5  6  7  8  9  10  11  12  13  23  28  29  30  31  32 0
 6-311+G(2d,p)
 ****
 33  34 0
 6-311+G(2d,p)
 ****
 1  2  14  15  16  17  18  19  20  21  22  24  25  26  27 0
 3-21G
 ****
 35  36  37  38  39  40  41  42  43  44  45 0
 3-21G
 ****


