%nproc=1
%NoSave
%Mem=1900MB
#P OB98/GEN NMR

erre ene a

0 1
  C       93.417     270.076     190.247
  O       94.443     269.912     191.204
  H       93.032     269.090     189.974
  H       93.802     270.561     189.346
  H       92.596     270.665     190.667
  P       95.253     271.208     191.683
  C       93.513     271.048     193.590
  O       94.385     271.888     192.847
  C       92.654     271.875     194.558
  O       93.488     272.318     195.667
  C       92.037     273.132     193.921
  O       90.800     273.393     194.600
  C       93.072     274.183     194.272
  O       92.573     275.483     194.077
  C       93.424     273.760     195.701
  N       94.664     274.355     196.171
  C       94.539     275.436     197.046
  O       93.423     275.847     197.372
  N       95.676     276.048     197.509
  C       96.837     275.656     197.081
  N       97.924     276.313     197.565
  C       97.012     274.555     196.110
  C       95.894     273.951     195.704
  O       95.688     272.139     190.602
  O       96.509     270.606     192.475
  H       93.285     276.152     194.184
  H       97.313     270.686     191.928
  H       97.997     274.280     195.770
  H       95.920     273.134     194.990
  H       92.620     274.035     196.397
  H       93.952     274.087     193.624
  H       91.863     273.024     192.850
  H       91.879     271.226     194.985
  H       97.757     277.068     198.221
  H       94.134     270.343     194.152
  H       98.873     276.111     197.288
  H       92.862     270.484     192.915
  P       89.369     273.072     193.957
  C       88.409     271.538     195.797
  O       88.873     271.631     194.452
  O       89.317     273.257     192.474
  O       88.354     274.082     194.674
  H       87.635     274.306     194.056
  H       88.109     270.532     196.002
  H       87.574     272.194     195.933
  H       89.196     271.819     196.466

 6  7  8  9  10  11  12  13  14  15  16  26  30  31  32  33  35 0
 6-311+G(2d,p)
 ****
 37  38 0
 6-311+G(2d,p)
 ****
 1  2  3  4  5  17  18  19  20  21  22  23  24  25 0
 3-21G
 ****
 27  28  29  34  36  39  40  41  42  43  44  45  46 0
 3-21G
 ****


