%nproc=1
%NoSave
%Mem=1900MB
#P OB98/GEN NMR

erre ene a

0 1
  C      113.559     158.232     194.560
  O      112.947     159.248     195.329
  H      112.930     157.339     194.593
  H      114.542     157.987     194.970
  H      113.660     158.557     193.521
  P      113.777     160.613     195.500
  C      113.022     161.555     193.187
  O      112.958     161.664     194.601
  C      112.150     162.625     192.541
  O      110.752     162.375     192.812
  C      112.408     164.044     193.042
  O      113.572     164.632     192.489
  C      111.143     164.726     192.557
  O      111.222     164.935     191.135
  C      110.082     163.663     192.908
  N      109.507     163.844     194.243
  C      108.367     164.654     194.330
  O      107.890     165.178     193.326
  N      107.812     164.882     195.568
  C      108.332     164.334     196.622
  N      107.740     164.597     197.817
  C      109.522     163.466     196.573
  C      110.051     163.266     195.368
  O      115.094     160.359     194.628
  O      114.036     161.052     196.901
  H      111.969     165.544     190.985
  H      115.610     161.199     194.544
  H      109.928     163.041     197.481
  H      110.928     162.637     195.255
  H      109.267     163.663     192.175
  H      110.976     165.703     193.011
  H      112.434     164.083     194.138
  H      112.288     162.558     191.454
  H      106.962     165.245     197.824
  H      112.668     160.558     192.904
  H      108.155     164.343     198.704
  H      114.055     161.676     192.849
  P      114.381     165.671     193.410
  C      115.817     164.305     195.099
  O      115.748     164.950     193.833
  O      113.536     165.688     194.766
  O      114.533     167.041     192.826
  H      113.552     166.575     195.176
  H      116.789     163.876     195.228
  H      115.077     163.533     195.147
  H      115.637     165.020     195.874

 6  7  8  9  10  11  12  13  14  15  16  26  30  31  32  33  35 0
 6-311+G(2d,p)
 ****
 37  38 0
 6-311+G(2d,p)
 ****
 1  2  3  4  5  17  18  19  20  21  22  23  24  25 0
 3-21G
 ****
 27  28  29  34  36  39  40  41  42  43  44  45  46 0
 3-21G
 ****


