%nproc=1
%NoSave
%Mem=1900MB
#P OB98/GEN NMR

erre ene a

0 1
  C     -204.756     328.173     -68.136
  O     -204.208     329.413     -67.723
  P     -203.863     330.554     -68.795
  C     -201.425     330.649     -67.971
  O     -202.623     331.383     -68.192
  C     -200.202     331.498     -68.325
  O     -200.170     331.690     -69.762
  C     -200.207     332.874     -67.676
  O     -198.865     333.230     -67.336
  C     -200.687     333.803     -68.775
  O     -200.208     335.147     -68.566
  C     -200.138     333.109     -70.023
  N     -200.955     336.335     -73.927
  C     -200.048     336.349     -72.929
  N     -199.901     335.472     -71.915
  C     -200.793     334.470     -72.020
  C     -201.775     334.319     -72.987
  C     -201.846     335.315     -73.979
  N     -202.764     335.294     -75.005
  N     -202.521     333.177     -72.756
  C     -201.982     332.641     -71.684
  N     -200.924     333.379     -71.208
  O     -205.017     331.390     -69.225
  O     -203.207     329.765     -70.023
  H     -199.237     335.132     -68.695
  H     -203.489     330.157     -70.869
  H     -199.342     337.176     -72.946
  H     -202.317     331.732     -71.207
  H     -199.099     333.392     -70.222
  H     -201.781     333.838     -68.777
  H     -200.843     332.924     -66.783
  H     -199.300     330.935     -68.047
  H     -201.444     329.758     -68.607
  H     -202.659     335.982     -75.736
  H     -203.306     334.450     -75.144
  H     -201.385     330.328     -66.924
  P     -198.643     333.790     -65.839
  C     -197.336     335.917     -66.589
  O     -197.303     334.674     -65.931
  O     -198.671     332.700     -64.820
  O     -199.838     334.852     -65.724
  H     -200.117     335.178     -66.604
  H     -196.330     336.349     -66.577
  H     -198.009     336.604     -66.064
  H     -197.662     335.800     -67.627
  H     -204.915     327.550     -67.280
  H     -204.078     327.690     -68.808
  H     -205.689     328.343     -68.631

 3  4  5  6  7  8  9  10  11  12  22  25  29  30  31  32 0
 6-311+G(2d,p)
 ****
 33  36  37 0
 6-311+G(2d,p)
 ****
 1  2  13  14  15  16  17  18  19  20  21  23  24  26 0
 3-21G
 ****
 27  28  34  35  38  39  40  41  42  43  44  45  46  47  48 0
 3-21G
 ****


