%nproc=1
%NoSave
%Mem=1900MB
#P OB98/GEN NMR

erre ene a

0 1
  C       70.558     -40.571    -229.543
  O       70.715     -39.403    -230.327
  H       71.448     -41.198    -229.660
  H       69.684     -41.133    -229.883
  H       70.445     -40.312    -228.486
  P       69.627     -38.249    -230.110
  C       67.988     -39.157    -231.950
  O       68.205     -38.841    -230.580
  C       66.802     -38.364    -232.490
  O       65.584     -38.742    -231.821
  C       66.895     -36.867    -232.257
  O       67.851     -36.242    -233.087
  C       65.461     -36.446    -232.555
  O       65.247     -36.248    -233.958
  C       64.648     -37.657    -232.041
  N       63.885     -37.330    -230.852
  C       62.808     -38.180    -230.575
  O       62.573     -39.143    -231.313
  N       62.005     -37.901    -229.503
  C       62.236     -36.848    -228.779
  N       61.383     -36.608    -227.752
  C       63.363     -35.923    -229.033
  C       64.143     -36.221    -230.075
  O       69.991     -37.210    -231.271
  O       69.608     -37.654    -228.743
  H       65.805     -35.485    -234.217
  H       70.097     -37.621    -232.147
  H       63.520     -35.068    -228.396
  H       64.988     -35.600    -230.335
  H       63.948     -38.007    -232.815
  H       65.208     -35.502    -232.060
  H       67.095     -36.659    -231.195
  H       66.695     -38.597    -233.560
  H       60.593     -37.233    -227.646
  H       67.815     -40.233    -232.072
  H       61.419     -35.780    -227.173
  H       68.899     -38.905    -232.497
  P       68.858     -35.133    -232.516
  C       67.530     -33.111    -233.408
  O       67.979     -33.811    -232.255
  O       70.083     -34.905    -233.328
  O       69.144     -35.642    -231.024
  H       68.356     -35.713    -230.456
  H       66.960     -32.257    -233.107
  H       66.918     -33.757    -234.002
  H       68.374     -32.792    -233.983

 6  7  8  9  10  11  12  13  14  15  16  26  30  31  32  33  35 0
 6-311+G(2d,p)
 ****
 37  38 0
 6-311+G(2d,p)
 ****
 1  2  3  4  5  17  18  19  20  21  22  23  24  25 0
 3-21G
 ****
 27  28  29  34  36  39  40  41  42  43  44  45  46 0
 3-21G
 ****


