%nproc=1
%NoSave
%Mem=1900MB
#P OB98/GEN NMR

erre ene a

0 1
  C     -208.510     -85.307      62.693
  O     -207.932     -84.989      61.432
  P     -206.512     -84.250      61.349
  C     -205.107     -85.487      59.582
  O     -206.002     -84.405      59.833
  C     -205.439     -86.162      58.252
  O     -206.662     -86.929      58.408
  C     -205.655     -85.177      57.106
  O     -205.147     -85.751      55.899
  C     -207.165     -85.072      56.981
  O     -207.555     -84.696      55.648
  C     -207.604     -86.474      57.412
  N     -212.653     -86.413      56.455
  C     -211.583     -86.417      55.630
  N     -210.274     -86.411      55.953
  C     -210.109     -86.446      57.286
  C     -211.106     -86.450      58.255
  C     -212.436     -86.427      57.794
  N     -213.525     -86.433      58.634
  N     -210.556     -86.464      59.522
  C     -209.255     -86.489      59.321
  N     -208.937     -86.495      57.989
  O     -205.518     -84.669      62.384
  O     -206.862     -82.694      61.455
  H     -208.508     -84.891      55.560
  H     -206.184     -82.228      61.985
  H     -211.815     -86.430      54.564
  H     -208.503     -86.497      60.102
  H     -207.581     -87.185      56.571
  H     -207.540     -84.307      57.670
  H     -205.180     -84.203      57.286
  H     -204.634     -86.874      58.008
  H     -205.212     -86.213      60.395
  H     -214.440     -86.535      58.215
  H     -213.368     -86.617      59.618
  H     -204.073     -85.114      59.584
  P     -204.374     -84.740      54.906
  C     -202.428     -86.435      54.562
  O     -203.471     -85.689      53.979
  O     -203.675     -83.645      55.653
  O     -205.574     -84.252      53.964
  H     -206.305     -84.917      53.932
  H     -201.904     -86.986      53.769
  H     -202.834     -87.160      55.274
  H     -201.716     -85.774      55.070
  H     -209.451     -85.794      62.542
  H     -208.660     -84.408      63.254
  H     -207.854     -85.958      63.232

 3  4  5  6  7  8  9  10  11  12  22  25  29  30  31  32 0
 6-311+G(2d,p)
 ****
 33  36  37 0
 6-311+G(2d,p)
 ****
 1  2  13  14  15  16  17  18  19  20  21  23  24  26 0
 3-21G
 ****
 27  28  34  35  38  39  40  41  42  43  44  45  46  47  48 0
 3-21G
 ****


