%nproc=1
%NoSave
%Mem=1900MB
#P OB98/GEN NMR

erre ene a

0 1
  C       37.731     -57.834      18.428
  O       37.215     -58.146      19.702
  P       37.936     -57.605      21.028
  C       36.093     -58.460      22.609
  O       37.459     -58.567      22.223
  C       35.774     -59.482      23.695
  O       35.995     -60.835      23.221
  C       36.654     -59.372      24.932
  O       36.526     -58.208      25.718
  C       36.379     -60.702      25.612
  O       35.160     -60.666      26.353
  C       36.245     -61.650      24.393
  N       37.426     -62.494      24.226
  C       37.456     -63.656      24.988
  O       36.561     -63.984      25.766
  N       38.577     -64.429      24.854
  C       39.665     -64.137      24.085
  O       40.657     -64.854      24.047
  C       39.582     -62.887      23.316
  C       38.485     -62.133      23.417
  O       37.760     -56.149      21.297
  O       39.461     -58.049      20.825
  H       35.294     -60.064      27.110
  H       39.596     -59.009      20.732
  H       38.625     -65.270      25.408
  H       40.424     -62.632      22.685
  H       38.402     -61.206      22.860
  H       35.372     -62.303      24.513
  H       37.175     -60.972      26.314
  H       37.703     -59.390      24.606
  H       34.713     -59.398      23.946
  H       35.461     -58.656      21.737
  H       35.889     -57.439      22.949
  P       37.380     -57.943      27.047
  C       35.804     -55.957      27.584
  O       36.477     -57.099      28.067
  O       38.795     -57.508      26.859
  O       37.370     -59.398      27.728
  H       38.198     -59.520      28.229
  H       35.278     -55.484      28.417
  H       35.070     -56.239      26.824
  H       36.516     -55.239      27.168
  H       37.117     -58.282      17.675
  H       38.729     -58.211      18.345
  H       37.739     -56.772      18.297

 3  4  5  6  7  8  9  10  11  12  13  23  28  29  30  31  32 0
 6-311+G(2d,p)
 ****
 33  34 0
 6-311+G(2d,p)
 ****
 1  2  14  15  16  17  18  19  20  21  22  24  25  26  27 0
 3-21G
 ****
 35  36  37  38  39  40  41  42  43  44  45 0
 3-21G
 ****


