%nproc=1
%NoSave
%Mem=1900MB
#P OB98/GEN NMR

erre ene a

0 1
  C     1159.047     993.355    -726.700
  O     1160.097     993.967    -727.408
  H     1159.284     993.380    -725.629
  H     1158.944     992.310    -727.006
  H     1158.102     993.884    -726.868
  P     1159.945     994.062    -729.008
  C     1159.533     996.617    -728.706
  O     1159.073     995.395    -729.265
  C     1158.439     997.682    -728.806
  O     1158.051     997.844    -730.179
  C     1157.172     997.332    -727.992
  O     1156.716     998.510    -727.308
  C     1156.175     996.911    -729.042
  O     1154.832     997.102    -728.619
  C     1156.617     997.722    -730.270
  N     1156.222     997.092    -731.524
  C     1154.828     997.088    -731.804
  O     1154.020     997.591    -731.012
  N     1154.398     996.460    -732.951
  C     1155.249     995.870    -733.717
  N     1154.747     995.250    -734.821
  C     1156.696     995.802    -733.437
  C     1157.110     996.439    -732.335
  O     1158.935     992.878    -729.346
  O     1161.226     994.005    -729.772
  H     1154.770     996.836    -727.683
  H     1158.911     992.683    -730.306
  H     1157.376     995.267    -734.098
  H     1158.150     996.445    -732.038
  H     1156.188     998.736    -730.227
  H     1156.312     995.826    -729.250
  H     1157.343     996.550    -727.264
  H     1158.865     998.657    -728.482
  H     1153.742     995.311    -734.982
  H     1160.419     996.955    -729.258
  H     1155.318     994.723    -735.482
  H     1159.804     996.461    -727.648
  P     1156.800     998.459    -725.705
  C     1158.738    1000.183    -725.586
  O     1158.308     998.875    -725.281
  O     1156.731     996.897    -725.380
  O     1155.729     999.232    -725.031
  H     1155.833     996.646    -725.115
  H     1159.745    1000.315    -725.250
  H     1158.103    1000.891    -725.095
  H     1158.692    1000.336    -726.644

 6  7  8  9  10  11  12  13  14  15  16  26  30  31  32  33  35 0
 6-311+G(2d,p)
 ****
 37  38 0
 6-311+G(2d,p)
 ****
 1  2  3  4  5  17  18  19  20  21  22  23  24  25 0
 3-21G
 ****
 27  28  29  34  36  39  40  41  42  43  44  45  46 0
 3-21G
 ****


