%nproc=1
%NoSave
%Mem=1900MB
#P OB98/GEN NMR

erre ene a

0 1
  C      -14.325    -486.567     693.744
  O      -12.962    -486.836     693.489
  H      -14.766    -487.430     694.251
  H      -14.857    -486.397     692.804
  H      -14.427    -485.688     694.389
  P      -12.081    -485.634     692.904
  C      -11.133    -486.677     690.686
  O      -12.060    -485.783     691.304
  C      -11.315    -486.648     689.171
  O      -12.540    -487.293     688.773
  C      -11.439    -485.242     688.594
  O      -10.222    -484.537     688.620
  C      -11.939    -485.569     687.193
  O      -10.859    -485.989     686.342
  C      -12.909    -486.748     687.480
  N      -14.304    -486.343     687.438
  C      -14.986    -486.640     686.243
  O      -14.405    -487.208     685.319
  N      -16.297    -486.255     686.131
  C      -16.889    -485.644     687.110
  N      -18.182    -485.280     686.926
  C      -16.218    -485.346     688.384
  C      -14.930    -485.710     688.482
  O      -10.592    -486.048     693.320
  O      -12.489    -484.265     693.355
  H      -10.162    -485.301     686.425
  H      -10.344    -486.945     693.030
  H      -16.748    -484.847     689.194
  H      -14.366    -485.524     689.391
  H      -12.758    -487.552     686.744
  H      -12.398    -484.705     686.715
  H      -12.234    -484.693     689.120
  H      -10.471    -487.195     688.719
  H      -18.606    -485.487     686.026
  H      -11.260    -487.697     691.070
  H      -18.732    -484.777     687.615
  H      -10.122    -486.346     690.960
  P      -10.187    -482.968     688.274
  C       -8.480    -483.461     686.414
  O       -9.727    -482.852     686.738
  O       -9.400    -482.126     689.225
  O      -11.742    -482.577     688.191
  H      -12.247    -483.064     687.513
  H       -8.276    -483.323     685.373
  H       -8.527    -484.507     686.633
  H       -7.702    -483.010     686.993

 6  7  8  9  10  11  12  13  14  15  16  26  30  31  32  33  35 0
 6-311+G(2d,p)
 ****
 37  38 0
 6-311+G(2d,p)
 ****
 1  2  3  4  5  17  18  19  20  21  22  23  24  25 0
 3-21G
 ****
 27  28  29  34  36  39  40  41  42  43  44  45  46 0
 3-21G
 ****


