%nproc=1
%NoSave
%Mem=1900MB
#P OB98/GEN NMR

erre ene a

0 1
  C     -192.270    -447.599    -188.300
  O     -192.877    -448.883    -188.075
  P     -194.318    -449.191    -188.718
  C     -195.520    -449.176    -186.392
  O     -195.453    -448.660    -187.715
  C     -196.435    -448.300    -185.529
  O     -197.665    -448.007    -186.231
  C     -196.865    -448.940    -184.219
  O     -195.835    -448.908    -183.247
  C     -198.073    -448.085    -183.850
  O     -197.662    -446.869    -183.201
  C     -198.684    -447.788    -185.233
  N     -199.878    -448.583    -185.502
  C     -201.102    -447.957    -185.276
  O     -201.203    -446.821    -184.814
  N     -202.216    -448.701    -185.561
  C     -202.227    -450.000    -185.981
  O     -203.260    -450.621    -186.204
  C     -200.906    -450.633    -186.124
  C     -199.813    -449.908    -185.879
  O     -194.430    -450.781    -188.534
  O     -194.483    -448.814    -190.153
  H     -198.464    -446.319    -183.108
  H     -195.003    -451.151    -189.230
  H     -203.111    -448.257    -185.433
  H     -200.871    -451.671    -186.434
  H     -198.828    -450.359    -185.981
  H     -198.947    -446.725    -185.306
  H     -198.754    -448.600    -183.164
  H     -197.198    -449.971    -184.399
  H     -195.916    -447.350    -185.343
  H     -194.518    -449.185    -185.957
  H     -195.895    -450.205    -186.433
  P     -195.134    -450.312    -182.891
  C     -196.820    -450.919    -180.988
  O     -196.298    -451.216    -182.265
  O     -194.220    -449.887    -181.647
  O     -194.385    -450.900    -184.041
  H     -194.633    -449.189    -181.109
  H     -196.817    -449.844    -180.791
  H     -196.223    -451.432    -180.228
  H     -197.849    -451.286    -180.936
  H     -191.322    -447.561    -187.806
  H     -192.906    -446.831    -187.911
  H     -192.131    -447.449    -189.350

 3  4  5  6  7  8  9  10  11  12  13  23  28  29  30  31  32 0
 6-311+G(2d,p)
 ****
 33  34 0
 6-311+G(2d,p)
 ****
 1  2  14  15  16  17  18  19  20  21  22  24  25  26 0
 3-21G
 ****
 27  35  36  37  38  39  40  41  42  43  44  45 0
 3-21G
 ****


