%nproc=1
%NoSave
%Mem=1900MB
#P OB98/GEN NMR

erre ene a

0 1
  C     -360.890      27.124     570.343
  O     -360.571      28.410     570.820
  H     -360.925      27.158     569.247
  H     -361.863      26.800     570.713
  H     -360.112      26.404     570.638
  P     -360.517      28.649     572.406
  C     -357.939      28.828     572.476
  O     -359.093      28.111     572.907
  C     -356.888      28.855     573.588
  O     -356.419      27.493     573.788
  C     -355.678      29.732     573.231
  O     -355.380      30.706     574.232
  C     -354.591      28.720     572.891
  O     -353.267      29.177     573.089
  C     -354.971      27.499     573.737
  N     -354.476      26.229     573.218
  C     -353.093      26.097     573.072
  O     -352.266      26.952     573.379
  N     -352.675      24.899     572.561
  C     -353.464      23.852     572.176
  O     -353.021      22.804     571.736
  C     -354.910      24.069     572.327
  C     -355.345      25.219     572.833
  O     -361.688      28.141     573.176
  O     -360.365      30.238     572.549
  H     -352.672      28.420     572.910
  H     -361.230      30.630     572.798
  H     -351.669      24.782     572.470
  H     -355.563      23.263     572.023
  H     -356.407      25.417     572.956
  H     -354.604      27.614     574.764
  H     -354.690      28.456     571.828
  H     -355.884      30.344     572.347
  H     -357.367      29.183     574.521
  H     -358.253      29.847     572.229
  H     -357.520      28.350     571.581
  P     -354.804      32.170     573.944
  C     -357.141      33.298     574.351
  O     -356.027      33.104     573.495
  O     -353.566      32.224     573.111
  O     -354.435      32.723     575.410
  H     -353.649      33.306     575.297
  H     -357.846      33.948     573.877
  H     -356.813      33.737     575.270
  H     -357.605      32.355     574.552

 6  7  8  9  10  11  12  13  14  15  16  26  31  32  33  34  35 0
 6-311+G(2d,p)
 ****
 36  37 0
 6-311+G(2d,p)
 ****
 1  2  3  4  5  17  18  19  20  21  22  23  24  25 0
 3-21G
 ****
 27  28  29  30  38  39  40  41  42  43  44  45 0
 3-21G
 ****


