%nproc=1
%NoSave
%Mem=1900MB
#P OB98/GEN NMR

erre ene a

0 1
  C      808.199     729.936    1881.338
  O      807.684     731.157    1880.800
  P      807.804     732.601    1881.495
  C      809.257     733.568    1879.507
  O      809.106     733.317    1880.893
  C      810.235     734.711    1879.243
  O      809.670     735.948    1879.831
  C      811.616     734.500    1879.911
  O      812.692     734.871    1879.078
  C      811.474     735.223    1881.235
  O      812.725     735.568    1881.842
  C      810.572     736.393    1880.848
  N      809.982     740.169    1884.286
  C      811.004     739.951    1883.385
  N      812.053     740.819    1883.416
  N      811.056     738.946    1882.566
  C      810.024     738.097    1882.705
  C      808.911     738.194    1883.545
  C      808.876     739.329    1884.415
  O      807.989     739.591    1885.213
  N      808.057     737.119    1883.388
  C      808.623     736.402    1882.464
  N      809.798     736.908    1881.984
  O      807.605     732.654    1882.976
  O      806.589     733.418    1880.792
  H      812.508     736.271    1882.504
  H      806.297     734.063    1881.474
  H      810.001     740.986    1884.894
  H      808.187     735.456    1882.075
  H      811.133     737.255    1880.456
  H      810.950     734.563    1881.945
  H      812.128     741.574    1884.111
  H      811.786     733.434    1880.092
  H      812.902     740.516    1882.936
  H      810.318     734.869    1878.143
  H      808.271     733.796    1879.140
  H      809.579     732.643    1879.003
  P      813.807     733.926    1878.349
  C      813.023     734.571    1875.981
  O      813.193     733.503    1876.934
  O      813.733     732.537    1879.176
  O      815.179     734.493    1878.330
  H      814.611     732.381    1879.538
  H      812.364     734.199    1875.161
  H      813.991     734.853    1875.555
  H      812.521     735.408    1876.443
  H      807.978     729.130    1880.669
  H      807.745     729.745    1882.288
  H      809.259     730.019    1881.459

 3  4  5  6  7  8  9  10  11  12  23  26  30  31 0
 6-311+G(2d,p)
 ****
 33  35  36  37  38 0
 6-311+G(2d,p)
 ****
 1  2  13  14  15  16  17  18  19  20  21  22  24  25 0
 3-21G
 ****
 27  28  29  32  34  39  40  41  42  43  44  45  46  47  48  49 0
 3-21G
 ****


