%nproc=1
%NoSave
%Mem=1900MB
#P OB98/GEN NMR

erre ene a

0 1
  C     -171.291     -21.372     342.839
  O     -171.992     -22.126     343.806
  H     -170.364     -21.005     343.280
  H     -171.896     -20.518     342.522
  H     -171.048     -21.995     341.971
  P     -173.335     -22.862     343.329
  C     -174.830     -20.728     343.252
  O     -174.187     -21.763     342.523
  C     -174.544     -19.375     342.596
  O     -175.186     -19.343     341.290
  C     -175.083     -18.183     343.399
  O     -174.168     -17.090     343.282
  C     -176.381     -17.847     342.687
  O     -176.810     -16.502     342.887
  C     -176.013     -18.165     341.238
  N     -177.189     -18.393     340.395
  C     -177.950     -17.286     340.046
  O     -177.673     -16.123     340.331
  N     -179.096     -17.559     339.334
  C     -179.549     -18.793     338.973
  O     -180.588     -18.971     338.357
  C     -178.700     -19.928     339.377
  C     -177.580     -19.679     340.063
  O     -174.163     -23.037     344.689
  O     -173.144     -24.151     342.603
  H     -173.950     -23.890     345.111
  H     -176.014     -15.931     342.909
  H     -179.663     -16.762     339.073
  H     -179.027     -20.924     339.112
  H     -176.938     -20.493     340.385
  H     -175.406     -17.357     340.814
  H     -177.183     -18.509     343.039
  H     -175.240     -18.416     344.454
  H     -173.461     -19.281     342.425
  H     -174.449     -20.718     344.276
  H     -175.906     -20.918     343.273
  P     -173.046     -16.941     344.424
  C     -174.540     -16.271     346.464
  O     -173.782     -17.276     345.812
  O     -172.834     -15.358     344.458
  O     -171.818     -17.744     344.138
  H     -173.652     -14.850     344.319
  H     -174.956     -16.667     347.367
  H     -175.330     -15.946     345.820
  H     -173.906     -15.441     346.697

 6  7  8  9  10  11  12  13  14  15  16  27  31  32  33  34  35 0
 6-311+G(2d,p)
 ****
 36  37 0
 6-311+G(2d,p)
 ****
 1  2  3  4  5  17  18  19  20  21  22  23  24  25 0
 3-21G
 ****
 26  28  29  30  38  39  40  41  42  43  44  45 0
 3-21G
 ****


