%nproc=1
%NoSave
%Mem=1900MB
#P OB98/GEN NMR

erre ene a

0 1
  C       89.015     158.826     -89.117
  O       90.105     158.283     -88.401
  P       90.935     157.028     -88.957
  C       92.555     156.686     -90.925
  O       91.522     157.491     -90.381
  C       92.493     156.657     -92.454
  O       91.420     155.771     -92.879
  C       92.253     158.025     -93.111
  O       92.969     158.008     -94.348
  C       90.757     158.007     -93.361
  O       90.353     158.957     -94.339
  C       90.543     156.534     -93.736
  N       89.149     156.131     -93.600
  C       88.395     156.069     -94.773
  O       88.887     156.426     -95.849
  N       87.087     155.665     -94.701
  C       86.550     155.442     -93.539
  N       85.252     155.039     -93.529
  C       87.276     155.616     -92.267
  C       88.562     155.943     -92.370
  O       90.196     155.735     -88.971
  O       92.244     157.006     -88.035
  H       90.818     158.755     -95.178
  H       92.035     156.621     -87.148
  H       86.772     155.473     -91.323
  H       89.178     156.094     -91.491
  H       90.859     156.352     -94.773
  H       90.224     158.241     -92.430
  H       92.565     158.868     -92.491
  H       93.432     156.227     -92.821
  H       84.797     154.916     -94.426
  H       92.426     155.667     -90.548
  H       84.767     154.758     -92.689
  H       93.530     157.048     -90.582
  P       93.219     159.352     -95.185
  C       94.531     161.508     -94.758
  O       93.827     160.429     -94.169
  O       92.047     159.830     -95.980
  O       94.463     159.001     -96.136
  H       94.522     159.668     -96.851
  H       94.648     162.303     -94.017
  H       93.988     161.907     -95.621
  H       95.520     161.170     -95.076
  H       88.606     159.651     -88.572
  H       88.263     158.076     -89.245
  H       89.350     159.162     -90.076

 3  4  5  6  7  8  9  10  11  12  13  23  27  28  29  30  32 0
 6-311+G(2d,p)
 ****
 34  35 0
 6-311+G(2d,p)
 ****
 1  2  14  15  16  17  18  19  20  21  22  24  25  26 0
 3-21G
 ****
 31  33  36  37  38  39  40  41  42  43  44  45  46 0
 3-21G
 ****


