%nproc=1
%NoSave
%Mem=1900MB
#P OB98/GEN NMR

erre ene a

0 1
  C     -102.361     778.337     584.517
  O     -102.248     778.252     585.925
  H     -102.168     777.350     584.092
  H     -101.633     779.044     584.120
  H     -103.378     778.649     584.236
  P     -102.523     779.600     586.750
  C     -103.384     780.136     589.145
  O     -103.225     779.157     588.129
  C     -104.531     779.727     590.066
  O     -105.764     779.678     589.324
  C     -104.370     778.345     590.677
  O     -103.465     778.336     591.777
  C     -105.807     778.034     591.073
  O     -106.141     778.611     592.341
  C     -106.618     778.690     589.955
  N     -110.280     775.296     588.893
  C     -110.132     776.169     589.901
  N     -109.127     777.060     590.111
  C     -108.233     776.990     589.112
  C     -108.256     776.156     588.011
  C     -109.340     775.266     587.907
  N     -109.477     774.360     586.891
  N     -107.136     776.361     587.228
  C     -106.460     777.312     587.827
  N     -107.080     777.725     588.979
  O     -103.705     780.299     585.927
  O     -101.344     780.499     586.902
  H     -107.119     778.598     592.405
  H     -103.337     780.995     585.349
  H     -110.911     776.153     590.664
  H     -105.510     777.717     587.487
  H     -107.502     779.219     590.331
  H     -105.959     776.951     591.146
  H     -104.049     777.620     589.905
  H     -104.640     780.489     590.862
  H     -103.616     781.099     588.691
  H     -102.443     780.222     589.704
  H     -110.251     773.715     586.922
  H     -108.730     774.259     586.222
  P     -102.720     776.961     592.112
  C     -100.335     776.288     592.941
  O     -101.213     777.323     592.534
  O     -102.543     776.263     590.675
  O     -103.437     776.077     593.071
  H     -102.629     775.287     590.773
  H      -99.380     776.705     593.184
  H     -100.223     775.581     592.145
  H     -100.738     775.796     593.801

 6  7  8  9  10  11  12  13  14  15  25  28  32  33  34  35 0
 6-311+G(2d,p)
 ****
 36  37  40 0
 6-311+G(2d,p)
 ****
 1  2  3  4  5  16  17  18  19  20  21  22  23  24 0
 3-21G
 ****
 26  27  29  30  31  38  39 41  42  43  44  45  46  47  48 0
 3-21G
 ****


