%nproc=1
%NoSave
%Mem=1900MB
#P OB98/GEN NMR

erre ene a

0 1
  C     -574.350     215.815     436.721
  O     -573.175     215.462     437.431
  H     -575.151     215.130     437.009
  H     -574.175     215.721     435.647
  H     -574.663     216.840     436.962
  P     -571.974     216.532     437.416
  C     -572.452     217.456     439.801
  O     -572.416     217.723     438.402
  C     -571.704     218.542     440.561
  O     -572.442     219.773     440.539
  C     -571.455     218.211     442.040
  O     -570.304     217.401     442.214
  C     -571.226     219.619     442.594
  O     -569.895     220.052     442.262
  C     -572.265     220.441     441.822
  N     -574.714     222.001     445.992
  C     -573.360     221.986     445.714
  N     -572.546     222.463     446.679
  N     -572.851     221.566     444.594
  C     -573.783     221.096     443.718
  C     -575.155     221.049     443.881
  C     -575.698     221.546     445.123
  O     -576.897     221.588     445.423
  N     -575.777     220.520     442.783
  C     -574.789     220.231     441.961
  N     -573.557     220.555     442.482
  O     -572.097     217.183     435.958
  O     -570.613     215.963     437.644
  H     -569.287     219.564     442.839
  H     -571.409     216.798     435.384
  H     -575.057     222.338     446.877
  H     -574.900     219.785     440.984
  H     -571.908     221.464     441.628
  H     -571.307     219.649     443.691
  H     -572.867     222.777     447.582
  H     -572.343     217.781     442.510
  H     -571.551     222.476     446.494
  H     -570.753     218.719     440.042
  H     -571.982     216.483     439.986
  H     -573.505     217.421     440.123
  P     -570.131     216.620     443.601
  C     -570.769     214.246     442.751
  O     -571.131     215.360     443.568
  O     -570.818     217.613     444.653
  O     -568.723     216.306     443.980
  H     -570.127     217.995     445.246
  H     -571.521     213.489     442.827
  H     -569.831     213.851     443.081
  H     -570.684     214.563     441.733

 6  7  8  9  10  11  12  13  14  15  26  29  33  34 0
 6-311+G(2d,p)
 ****
 36  38  39  40  41 0
 6-311+G(2d,p)
 ****
 1  2  3  4  5  16  17  18  19  20  21  22  23  24  25 0
 3-21G
 ****
 27  28  30  31  32  35  37  42  43  44  45  46  47 0
 3-21G
 ****
 48  49 0
 3-21G
 ****


