%nproc=1
%NoSave
%Mem=1900MB
#P OB98/GEN NMR

erre ene a

0 1
  C      -23.739      66.432     113.468
  O      -23.471      65.573     112.373
  P      -24.280      65.800     111.010
  C      -26.274      64.345     111.830
  O      -25.840      65.601     111.329
  C      -27.799      64.242     111.762
  O      -28.391      65.283     112.599
  C      -28.377      64.409     110.347
  O      -29.538      63.573     110.252
  C      -28.795      65.869     110.335
  O      -29.745      66.167     109.324
  C      -29.321      66.009     111.767
  N      -29.449      67.404     112.192
  C      -30.734      67.887     112.420
  O      -31.757      67.216     112.285
  N      -30.821      69.211     112.755
  C      -29.787      70.103     112.795
  O      -29.947      71.302     112.987
  C      -28.453      69.534     112.545
  C      -28.345      68.233     112.261
  O      -23.902      64.511     110.140
  O      -23.956      67.070     110.295
  H      -29.285      66.116     108.465
  H      -23.212      64.730     109.487
  H      -31.744      69.576     112.936
  H      -27.605      70.209     112.589
  H      -27.376      67.793     112.052
  H      -30.295      65.509     111.863
  H      -27.914      66.499     110.168
  H      -27.664      64.165     109.552
  H      -28.103      63.275     112.185
  H      -25.953      64.244     112.869
  H      -25.806      63.538     111.254
  P      -29.880      62.919     108.824
  C      -31.635      64.712     108.087
  O      -30.375      64.115     107.878
  O      -31.227      62.122     109.173
  O      -28.792      62.049     108.285
  H      -31.833      62.639     109.730
  H      -31.895      64.743     109.149
  H      -32.398      64.150     107.545
  H      -31.613      65.735     107.701
  H      -23.123      66.154     114.298
  H      -24.769      66.347     113.744
  H      -23.527      67.443     113.189

 3  4  5  6  7  8  9  10  11  12  13  23  28  29  30  31  32 0
 6-311+G(2d,p)
 ****
 33  34 0
 6-311+G(2d,p)
 ****
 1  2  14  15  16  17  18  19  20  21  22  24  25  26 0
 3-21G
 ****
 27  35  36  37  38  39  40  41  42  43  44  45 0
 3-21G
 ****


