%nproc=1
%NoSave
%Mem=1900MB
#P OB98/GEN NMR

erre ene a

0 1
  C      228.268    -428.207     295.474
  O      229.038    -429.164     294.769
  H      228.940    -427.429     295.849
  H      227.768    -428.676     296.324
  H      227.528    -427.742     294.815
  P      228.280    -430.335     293.981
  C      228.486    -429.568     291.529
  O      228.968    -430.450     292.535
  C      229.518    -429.471     290.398
  O      230.595    -428.590     290.784
  C      230.177    -430.801     290.047
  O      229.305    -431.614     289.282
  C      231.414    -430.321     289.305
  O      231.104    -429.982     287.944
  C      231.797    -429.061     290.119
  N      232.868    -429.305     291.077
  C      234.069    -429.798     290.552
  O      234.229    -430.063     289.360
  N      235.067    -430.019     291.463
  C      234.953    -429.897     292.820
  O      235.854    -430.190     293.602
  C      233.670    -429.400     293.315
  C      232.699    -429.127     292.436
  O      226.791    -430.250     293.967
  O      228.781    -431.668     294.721
  H      231.910    -429.569     287.572
  H      228.068    -432.010     295.292
  H      235.932    -430.393     291.107
  H      233.551    -429.273     294.386
  H      231.741    -428.761     292.781
  H      232.111    -428.257     289.437
  H      232.197    -431.073     289.282
  H      230.485    -431.315     290.961
  H      229.019    -429.037     289.517
  H      228.337    -428.575     291.968
  H      227.532    -429.947     291.148
  P      229.614    -433.180     289.111
  C      227.151    -433.874     289.355
  O      228.306    -433.876     288.516
  O      230.197    -433.846     290.318
  O      230.641    -433.224     287.884
  H      231.486    -433.617     288.180
  H      226.344    -434.365     288.852
  H      226.872    -432.865     289.576
  H      227.371    -434.391     290.266

 6  7  8  9  10  11  12  13  14  15  16  26  31  32  33  34  35 0
 6-311+G(2d,p)
 ****
 36  37 0
 6-311+G(2d,p)
 ****
 1  2  3  4  5  17  18  19  20  21  22  23  24  25 0
 3-21G
 ****
 27  28  29  30  38  39  40  41  42  43  44  45 0
 3-21G
 ****


