%nproc=1
%NoSave
%Mem=1900MB
#P OB98/GEN NMR

erre ene a

0 1
  C      395.425     861.221    -770.724
  O      394.001     861.292    -770.927
  P      393.412     860.501    -772.179
  C      393.217     858.398    -770.643
  O      393.604     858.915    -771.910
  C      392.895     856.912    -770.770
  O      391.612     856.686    -771.403
  C      393.887     856.141    -771.637
  O      395.108     855.924    -770.946
  C      393.096     854.873    -771.932
  O      393.148     853.974    -770.816
  C      391.667     855.424    -772.089
  N      388.534     853.799    -775.818
  C      388.692     853.422    -774.534
  N      389.546     853.892    -773.599
  C      390.295     854.894    -774.116
  C      390.238     855.404    -775.402
  C      389.311     854.807    -776.282
  N      389.174     855.203    -777.598
  N      391.163     856.425    -775.548
  C      391.770     856.511    -774.392
  N      391.274     855.616    -773.483
  O      394.462     860.801    -773.353
  O      392.035     860.911    -772.563
  H      394.091     853.724    -770.698
  H      394.069     861.417    -774.001
  H      388.039     852.610    -774.212
  H      392.579     857.195    -774.166
  H      390.907     854.753    -771.634
  H      393.465     854.335    -772.830
  H      394.088     856.701    -772.568
  H      392.859     856.470    -769.763
  H      392.342     858.932    -770.266
  H      388.532     854.690    -778.181
  H      389.807     855.902    -777.969
  H      394.019     858.570    -769.927
  P      396.420     856.677    -771.508
  C      397.534     856.471    -769.208
  O      397.076     857.347    -770.201
  O      395.781     857.911    -772.285
  O      397.337     855.802    -772.310
  H      395.091     858.359    -771.746
  H      397.978     857.063    -768.389
  H      398.301     855.800    -769.617
  H      396.699     855.891    -768.791
  H      395.691     861.790    -769.857
  H      395.928     861.620    -771.580
  H      395.715     860.201    -770.583

 3  4  5  6  7  8  9  10  11  12  22  25  29  30  31  32 0
 6-311+G(2d,p)
 ****
 33  36  37 0
 6-311+G(2d,p)
 ****
 1  2  13  14  15  16  17  18  19  20  21  23  24  26 0
 3-21G
 ****
 27  28  34  35  38  39  40  41  42  43  44  45  46  47  48 0
 3-21G
 ****


