%nproc=1
%NoSave
%Mem=1900MB
#P OB98/GEN NMR

erre ene a

0 1
  C     -373.684    -836.089     352.895
  O     -372.326    -836.428     353.206
  P     -371.925    -836.669     354.750
  C     -371.008    -839.115     354.597
  O     -370.727    -837.732     354.816
  C     -369.708    -839.891     354.391
  O     -369.156    -839.620     353.084
  C     -368.581    -839.508     355.366
  O     -368.786    -840.111     356.645
  C     -367.360    -840.049     354.633
  O     -367.199    -841.466     354.875
  C     -367.717    -839.784     353.163
  N     -367.011    -838.641     352.602
  C     -365.744    -838.883     352.108
  O     -365.185    -839.990     352.177
  N     -365.096    -837.801     351.558
  C     -365.556    -836.515     351.518
  O     -364.923    -835.592     351.027
  C     -366.870    -836.310     352.135
  C     -367.527    -837.355     352.635
  O     -373.167    -837.528     355.287
  O     -371.748    -835.428     355.581
  H     -367.006    -841.559     355.830
  H     -373.290    -837.373     356.258
  H     -364.174    -837.962     351.166
  H     -367.265    -835.303     352.137
  H     -368.503    -837.210     353.114
  H     -367.491    -840.661     352.553
  H     -366.430    -839.563     354.959
  H     -368.512    -838.410     355.443
  H     -369.926    -840.958     354.446
  H     -371.625    -839.219     353.709
  H     -371.543    -839.509     355.460
  P     -367.825    -839.583     357.834
  C     -369.852    -838.720     359.240
  O     -368.749    -839.589     359.138
  O     -367.654    -838.036     357.438
  O     -366.537    -840.351     357.901
  H     -368.457    -837.685     357.032
  H     -370.322    -838.570     358.270
  H     -369.534    -837.773     359.667
  H     -370.577    -839.169     359.927
  H     -373.787    -835.963     351.837
  H     -373.946    -835.177     353.390
  H     -374.332    -836.874     353.225

 3  4  5  6  7  8  9  10  11  12  13  23  28  29  30  31  32 0
 6-311+G(2d,p)
 ****
 33  34 0
 6-311+G(2d,p)
 ****
 1  2  14  15  16  17  18  19  20  21  22  24  25  26 0
 3-21G
 ****
 27  35  36  37  38  39  40  41  42  43  44  45 0
 3-21G
 ****


