%nproc=1
%NoSave
%Mem=1900MB
#P OB98/GEN NMR

erre ene a

0 1
  C      526.719     536.231    -512.110
  O      525.754     535.548    -511.302
  P      525.859     535.676    -509.706
  C      523.529     536.714    -509.319
  O      524.375     535.591    -509.104
  C      522.113     536.261    -509.689
  O      522.042     535.774    -511.045
  C      521.585     535.136    -508.811
  O      521.223     535.627    -507.519
  C      520.421     534.620    -509.653
  O      519.256     535.430    -509.465
  C      520.975     534.814    -511.097
  N      521.395     533.568    -511.717
  C      520.404     532.817    -512.339
  O      519.222     533.175    -512.303
  N      520.754     531.640    -512.970
  C      521.997     531.251    -512.960
  N      522.284     530.082    -513.596
  C      523.076     532.012    -512.312
  C      522.708     533.145    -511.699
  O      526.684     536.811    -509.190
  O      526.482     534.254    -509.275
  H      518.567     535.037    -510.031
  H      527.014     534.373    -508.467
  H      524.089     531.658    -512.333
  H      523.440     533.759    -511.199
  H      520.196     535.251    -511.738
  H      520.160     533.594    -509.405
  H      522.356     534.363    -508.722
  H      521.449     537.142    -509.605
  H      521.520     529.578    -514.033
  H      523.941     537.342    -510.104
  H      523.226     529.725    -513.689
  H      523.520     537.325    -508.398
  P      521.020     534.537    -506.363
  C      522.921     535.322    -504.774
  O      521.529     535.204    -504.992
  O      522.163     533.445    -506.677
  O      519.670     533.908    -506.320
  H      521.846     532.563    -506.432
  H      523.085     536.060    -503.974
  H      523.430     535.688    -505.670
  H      523.345     534.359    -504.472
  H      526.513     536.047    -513.144
  H      527.699     535.874    -511.873
  H      526.665     537.282    -511.917

 3  4  5  6  7  8  9  10  11  12  13  23  27  28  29  30  32 0
 6-311+G(2d,p)
 ****
 34  35 0
 6-311+G(2d,p)
 ****
 1  2  14  15  16  17  18  19  20  21  22  24  25  26 0
 3-21G
 ****
 31  33  36  37  38  39  40  41  42  43  44  45  46 0
 3-21G
 ****


