%nproc=1
%NoSave
%Mem=1900MB
#P OB98/GEN NMR

erre ene a

0 1
  C     -372.452    -462.951     191.147
  O     -372.459    -461.687     190.515
  H     -371.698    -463.580     190.661
  H     -373.431    -463.430     191.047
  H     -372.197    -462.840     192.205
  P     -373.530    -460.619     191.056
  C     -374.079    -459.920     188.641
  O     -373.593    -459.499     189.906
  C     -374.613    -458.725     187.846
  O     -375.520    -457.973     188.686
  C     -373.511    -457.765     187.381
  O     -373.829    -457.275     186.078
  C     -373.587    -456.623     188.379
  O     -373.091    -455.399     187.854
  C     -375.082    -456.608     188.719
  N     -375.060    -452.245     191.371
  C     -374.901    -452.506     190.058
  N     -374.935    -453.696     189.432
  C     -375.209    -454.692     190.305
  C     -375.393    -454.581     191.673
  C     -375.298    -453.285     192.206
  N     -375.431    -453.017     193.551
  N     -375.606    -455.826     192.227
  C     -375.570    -456.669     191.214
  N     -375.322    -456.028     190.033
  O     -373.291    -460.107     192.437
  O     -374.909    -461.403     190.848
  H     -373.181    -454.708     188.546
  H     -374.936    -461.850     189.980
  H     -374.712    -451.634     189.423
  H     -375.711    -457.745     191.282
  H     -375.667    -456.031     187.994
  H     -372.995    -456.874     189.270
  H     -372.528    -458.233     187.369
  H     -375.192    -459.100     186.991
  H     -374.885    -460.657     188.769
  H     -375.362    -452.060     193.858
  H     -375.625    -453.781     194.197
  H     -373.255    -460.397     188.098
  P     -372.631    -457.023     185.053
  C     -373.628    -455.101     183.622
  O     -373.249    -456.478     183.663
  O     -371.629    -458.116     184.914
  O     -371.941    -455.690     185.645
  H     -370.977    -455.760     185.525
  H     -374.020    -454.868     182.654
  H     -372.772    -454.489     183.817
  H     -374.376    -454.915     184.364

 6  7  8  9  10  11  12  13  14  15  25  28  32  33  34  35 0
 6-311+G(2d,p)
 ****
 36  39  40 0
 6-311+G(2d,p)
 ****
 1  2  3  4  5  16  17  18  19  20  21  22  23  24 0
 3-21G
 ****
 26  27  29  30  31  37  38  41  42  43  44  45  46  47 0
 3-21G
 ****
 48 0
 3-21G
 ****


