%nproc=1
%NoSave
%Mem=1900MB
#P OB98/GEN NMR

erre ene a

0 1
  C       68.233     -44.435      17.950
  O       68.421     -43.266      17.178
  P       67.476     -42.923      15.928
  C       69.461     -43.561      14.422
  O       68.079     -43.746      14.688
  C       69.797     -43.887      12.966
  O       69.527     -45.293      12.708
  C       69.016     -43.067      11.930
  O       69.900     -42.873      10.822
  C       67.888     -44.008      11.552
  O       67.283     -43.669      10.312
  C       68.615     -45.359      11.590
  N       67.685     -46.477      11.701
  C       67.463     -47.228      10.543
  O       67.977     -46.889       9.476
  N       66.621     -48.309      10.606
  C       65.977     -48.554      11.705
  N       65.160     -49.641      11.710
  C       66.086     -47.713      12.911
  C       66.960     -46.710      12.846
  O       67.263     -41.470      15.674
  O       66.126     -43.720      16.247
  H       66.893     -42.771      10.394
  H       65.595     -43.239      16.931
  H       65.488     -47.924      13.784
  H       67.110     -46.040      13.680
  H       69.218     -45.499      10.683
  H       67.108     -43.977      12.323
  H       68.655     -42.110      12.311
  H       70.875     -43.735      12.827
  H       65.125     -50.200      10.865
  H       70.024     -44.236      15.073
  H       64.679     -49.969      12.535
  H       69.755     -42.535      14.669
  P       70.343     -41.404      10.357
  C       68.455     -41.109       8.653
  O       69.018     -40.650       9.868
  O       71.482     -41.363       9.390
  O       70.710     -40.649      11.723
  H       71.225     -39.845      11.521
  H       67.433     -40.729       8.568
  H       68.433     -42.202       8.620
  H       69.045     -40.733       7.812
  H       68.966     -44.470      18.729
  H       68.337     -45.296      17.324
  H       67.254     -44.424      18.382

 3  4  5  6  7  8  9  10  11  12  13  23  27  28  29  30  32 0
 6-311+G(2d,p)
 ****
 34  35 0
 6-311+G(2d,p)
 ****
 1  2  14  15  16  17  18  19  20  21  22  24  25  26 0
 3-21G
 ****
 31  33  36  37  38  39  40  41  42  43  44  45  46 0
 3-21G
 ****


