%nproc=1
%NoSave
%Mem=1900MB
#P OB98/GEN NMR

erre ene a

0 1
  C      951.731    -150.485    -106.513
  O      950.363    -150.707    -106.218
  P      949.296    -149.524    -106.379
  C      948.347    -149.714    -103.995
  O      949.028    -148.884    -104.931
  C      948.481    -149.152    -102.584
  O      949.862    -149.146    -102.158
  C      948.028    -147.702    -102.448
  O      946.620    -147.572    -102.503
  C      948.659    -147.321    -101.118
  O      947.859    -147.793    -100.017
  C      949.999    -148.085    -101.176
  N      951.124    -147.213    -101.484
  C      952.291    -147.432    -100.756
  O      952.313    -148.279     -99.850
  N      953.405    -146.692    -101.068
  C      953.317    -145.734    -101.931
  N      954.474    -145.079    -102.240
  C      952.064    -145.362    -102.603
  C      951.013    -146.146    -102.351
  O      948.063    -149.881    -107.144
  O      950.120    -148.364    -107.133
  H      949.597    -148.057    -107.898
  H      946.969    -147.394    -100.127
  H      952.028    -144.508    -103.270
  H      950.052    -145.962    -102.821
  H      950.191    -148.584    -100.221
  H      948.758    -146.233    -100.997
  H      948.472    -147.098    -103.253
  H      947.912    -149.794    -101.903
  H      955.321    -145.367    -101.776
  H      948.789    -150.715    -104.034
  H      954.584    -144.556    -103.113
  H      947.296    -149.782    -104.282
  P      946.025    -146.110    -102.755
  C      944.684    -146.324    -100.554
  O      945.548    -145.534    -101.338
  O      944.648    -146.390    -103.540
  O      946.925    -145.206    -103.543
  H      944.508    -145.697    -104.196
  H      944.739    -145.972     -99.516
  H      944.961    -147.381    -100.586
  H      943.654    -146.209    -100.913
  H      952.283    -151.386    -106.346
  H      952.112    -149.711    -105.879
  H      951.832    -150.189    -107.536

 3  4  5  6  7  8  9  10  11  12  13  24  27  28  29  30  32 0
 6-311+G(2d,p)
 ****
 34  35 0
 6-311+G(2d,p)
 ****
 1  2  14  15  16  17  18  19  20  21  22  23  25  26 0
 3-21G
 ****
 31  33  36  37  38  39  40  41  42  43  44  45  46 0
 3-21G
 ****


