%nproc=1
%NoSave
%Mem=1900MB
#P OB98/GEN NMR

erre ene a

0 1
  C       16.398     -85.656      29.900
  O       15.863     -84.639      30.726
  H       15.838     -86.579      30.070
  H       17.449     -85.831      30.148
  H       16.302     -85.375      28.846
  P       16.538     -83.186      30.602
  C       14.461     -82.059      31.665
  O       15.855     -82.330      31.775
  C       13.869     -81.722      33.034
  O       13.979     -82.850      33.922
  C       14.564     -80.564      33.747
  O       14.091     -79.314      33.258
  C       14.113     -80.807      35.183
  O       12.773     -80.317      35.365
  C       14.130     -82.347      35.279
  N       16.676     -83.321      39.635
  C       15.577     -82.579      39.386
  N       14.980     -82.332      38.196
  C       15.637     -82.940      37.197
  C       16.778     -83.726      37.298
  C       17.297     -83.922      38.588
  N       18.422     -84.686      38.840
  N       17.172     -84.180      36.055
  C       16.256     -83.719      35.227
  N       15.325     -82.931      35.863
  O       16.521     -82.578      29.240
  O       18.000     -83.479      31.200
  H       12.462     -80.624      36.239
  H       17.944     -84.093      31.955
  H       15.106     -82.130      40.255
  H       16.210     -83.937      34.165
  H       13.283     -82.725      35.865
  H       14.746     -80.290      35.908
  H       15.651     -80.650      33.692
  H       12.801     -81.518      32.897
  H       13.939     -82.921      31.237
  H       18.822     -84.635      39.763
  H       18.951     -85.027      38.051
  H       14.345     -81.205      30.987
  P       15.077     -78.319      32.477
  C       12.975     -77.420      31.293
  O       14.181     -77.082      31.976
  O       15.905     -78.957      31.406
  O       15.983     -77.669      33.622
  H       16.903     -77.558      33.306
  H       12.464     -76.524      31.008
  H       12.349     -77.998      31.940
  H       13.208     -77.991      30.419

 6  7  8  9  10  11  12  13  14  15  25  28  32  33  34  35 0
 6-311+G(2d,p)
 ****
 36  39  40 0
 6-311+G(2d,p)
 ****
 1  2  3  4  5  16  17  18  19  20  21  22  23  24 0
 3-21G
 ****
 26  27  29  30  31  37  38  41  42  43  44  45  46  47 0
 3-21G
 ****
 48 0
 3-21G
 ****


