%nproc=1
%NoSave
%Mem=1900MB
#P OB98/GEN NMR

erre ene a

0 1
  C     -275.654     739.738     521.903
  O     -276.708     739.916     520.963
  P     -277.862     740.977     521.293
  C     -277.055     743.369     520.485
  O     -277.796     742.189     520.249
  C     -277.573     744.483     519.562
  O     -277.039     745.765     519.973
  C     -277.180     744.285     518.100
  O     -278.114     743.462     517.406
  C     -277.139     745.715     517.589
  O     -278.469     746.198     517.348
  C     -276.513     746.444     518.798
  N     -275.030     746.480     518.899
  C     -274.378     747.708     519.031
  O     -274.952     748.794     519.058
  N     -273.017     747.654     519.139
  C     -272.260     746.525     519.299
  O     -271.047     746.539     519.452
  C     -273.014     745.263     519.305
  C     -274.337     745.301     519.101
  O     -277.389     741.632     522.669
  O     -279.233     740.393     521.391
  H     -278.813     745.726     516.575
  H     -278.022     741.419     523.381
  H     -272.519     748.535     519.151
  H     -272.461     744.348     519.476
  H     -274.900     744.370     519.098
  H     -276.860     747.488     518.841
  H     -276.613     745.775     516.645
  H     -276.172     743.872     518.023
  H     -278.666     744.526     519.653
  H     -275.991     743.200     520.310
  H     -277.156     743.669     521.531
  P     -277.622     742.099     516.737
  C     -279.218     740.242     517.498
  O     -278.943     741.219     516.515
  O     -276.483     741.404     517.413
  O     -277.246     742.545     515.235
  H     -276.281     742.726     515.154
  H     -280.212     739.828     517.329
  H     -279.189     740.693     518.499
  H     -278.480     739.437     517.436
  H     -274.970     739.001     521.537
  H     -276.061     739.414     522.838
  H     -275.138     740.665     522.041

 3  4  5  6  7  8  9  10  11  12  13  23  28  29  30  31  32 0
 6-311+G(2d,p)
 ****
 33  34 0
 6-311+G(2d,p)
 ****
 1  2  14  15  16  17  18  19  20  21  22  24  25  26  27 0
 3-21G
 ****
 35  36  37  38  39  40  41  42  43  44  45 0
 3-21G
 ****


