%nproc=1
%NoSave
%Mem=1900MB
#P OB98/GEN NMR

erre ene a

0 1
  C      695.822     163.848     -82.675
  O      696.363     162.578     -83.048
  P      696.704     161.517     -81.905
  C      698.997     161.275     -83.057
  O      697.930     160.601     -82.388
  C      699.405     160.522     -84.330
  O      700.100     159.284     -83.987
  C      698.200     160.129     -85.197
  O      698.561     160.150     -86.593
  C      697.948     158.682     -84.805
  O      697.203     157.989     -85.807
  C      699.387     158.183     -84.603
  N      700.132     153.116     -84.641
  C      700.188     154.036     -85.637
  N      699.999     155.372     -85.545
  C      699.728     155.738     -84.274
  C      699.659     154.910     -83.159
  C      699.852     153.532     -83.383
  N      699.771     152.591     -82.379
  N      699.370     155.643     -82.018
  C      699.231     156.881     -82.447
  N      699.482     156.995     -83.787
  O      695.539     160.755     -81.359
  O      697.376     162.417     -80.760
  H      696.267     158.229     -85.699
  H      697.042     162.144     -79.886
  H      700.408     153.653     -86.625
  H      698.946     157.726     -81.833
  H      699.876     157.971     -85.568
  H      697.385     158.646     -83.871
  H      697.314     160.759     -85.048
  H      700.114     161.124     -84.902
  H      699.853     161.364     -82.384
  H      699.810     151.619     -82.661
  H      699.422     152.872     -81.476
  H      698.685     162.299     -83.282
  P      697.728     161.166     -87.515
  C      696.917     159.562     -89.426
  O      697.805     160.572     -89.009
  O      698.142     162.600     -87.351
  O      696.215     160.883     -87.051
  H      695.961     159.949     -87.049
  H      697.049     159.392     -90.487
  H      695.883     159.855     -89.233
  H      697.134     158.632     -88.887
  H      695.652     164.435     -83.553
  H      696.513     164.356     -82.035
  H      694.896     163.703     -82.158

 3  4  5  6  7  8  9  10  11  12  22  25  29  30  31  32 0
 6-311+G(2d,p)
 ****
 33  36  37 0
 6-311+G(2d,p)
 ****
 1  2  13  14  15  16  17  18  19  20  21  23  24  26 0
 3-21G
 ****
 27  28  34  35  38  39  40  41  42  43  44  45  46  47  48 0
 3-21G
 ****


