%nproc=1
%NoSave
%Mem=1900MB
#P OB98/GEN NMR

erre ene a

0 1
  C     -260.661      71.299     601.365
  O     -260.854      70.186     600.527
  H     -260.139      70.966     602.272
  H     -261.613      71.743     601.656
  H     -260.030      72.049     600.866
  P     -261.657      70.394     599.151
  C     -259.603      71.577     598.120
  O     -260.996      71.653     598.413
  C     -259.372      70.694     596.891
  O     -260.111      71.274     595.782
  C     -257.888      70.618     596.493
  O     -257.412      69.280     596.362
  C     -257.806      71.515     595.263
  O     -256.758      71.198     594.366
  C     -259.210      71.414     594.656
  N     -259.595      72.558     593.837
  C     -259.756      72.333     592.469
  O     -259.630      71.245     591.913
  N     -260.095      73.436     591.736
  C     -260.276      74.708     592.203
  O     -260.591      75.649     591.491
  C     -260.063      74.880     593.648
  C     -259.743      73.822     594.387
  O     -263.142      70.444     599.270
  O     -261.184      69.162     598.242
  H     -257.030      71.523     593.482
  H     -261.884      68.476     598.227
  H     -260.238      73.283     590.740
  H     -260.188      75.875     594.049
  H     -259.573      73.912     595.458
  H     -259.302      70.509     594.045
  H     -257.641      72.549     595.604
  H     -257.251      71.031     597.279
  H     -259.790      69.695     597.087
  H     -259.102      71.147     598.992
  H     -259.206      72.582     597.933
  P     -256.657      68.458     597.511
  C     -258.738      67.083     598.332
  O     -257.737      68.048     598.620
  O     -255.381      69.060     597.997
  O     -256.306      67.057     596.800
  H     -255.452      66.757     597.191
  H     -259.359      66.946     599.192
  H     -258.274      66.154     598.075
  H     -259.335      67.422     597.511

 6  7  8  9  10  11  12  13  14  15  16  26  31  32  33  34  35 0
 6-311+G(2d,p)
 ****
 36  37 0
 6-311+G(2d,p)
 ****
 1  2  3  4  5  17  18  19  20  21  22  23  24  25 0
 3-21G
 ****
 27  28  29  30  38  39  40  41  42  43  44  45 0
 3-21G
 ****


