%nproc=1
%NoSave
%Mem=1900MB
#P OB98/GEN NMR

erre ene a

0 1
  C      852.215     -50.165    -180.256
  O      852.546     -48.800    -180.415
  H      852.197     -50.637    -181.239
  H      851.226     -50.265    -179.798
  H      852.967     -50.672    -179.639
  P      852.642     -47.871    -179.115
  C      854.103     -45.796    -178.549
  O      853.920     -46.930    -179.390
  C      854.933     -44.740    -179.257
  O      856.284     -45.213    -179.506
  C      854.413     -44.316    -180.636
  O      853.258     -43.502    -180.577
  C      855.630     -43.582    -181.163
  O      855.720     -42.290    -180.531
  C      856.774     -44.513    -180.688
  N      857.189     -45.471    -181.722
  C      857.788     -44.937    -182.868
  O      857.944     -43.710    -182.987
  N      858.166     -45.790    -183.873
  C      857.944     -47.063    -183.752
  N      858.340     -47.856    -184.790
  C      857.298     -47.660    -182.579
  C      856.945     -46.832    -181.602
  O      852.644     -48.579    -177.799
  O      851.431     -46.824    -179.277
  H      855.142     -41.686    -181.041
  H      851.443     -46.230    -178.485
  H      857.112     -48.735    -182.539
  H      856.461     -47.190    -180.707
  H      857.647     -43.927    -180.374
  H      855.595     -43.413    -182.228
  H      854.237     -45.200    -181.269
  H      855.014     -43.876    -178.585
  H      858.776     -47.413    -185.588
  H      854.587     -46.134    -177.623
  H      858.132     -48.853    -184.811
  H      853.129     -45.364    -178.301
  P      852.352     -43.435    -181.904
  C      849.818     -42.987    -182.360
  O      850.840     -43.205    -181.410
  O      852.364     -44.944    -182.434
  O      852.811     -42.456    -182.943
  H      853.021     -45.058    -183.148
  H      848.884     -42.855    -181.855
  H      849.753     -43.831    -183.014
  H      850.042     -42.110    -182.930

 6  7  8  9  10  11  12  13  14  15  16  26  30  31  32  33  35 0
 6-311+G(2d,p)
 ****
 37  38 0
 6-311+G(2d,p)
 ****
 1  2  3  4  5  17  18  19  20  21  22  23  24  25 0
 3-21G
 ****
 27  28  29  34  36  39  40  41  42  43  44  45  46 0
 3-21G
 ****


