%nproc=1
%NoSave
%Mem=1900MB
#P OB98/GEN NMR

erre ene a

0 1
  C      726.049     565.452    -394.777
  O      724.819     566.129    -394.620
  H      726.823     566.183    -395.008
  H      725.988     564.734    -395.597
  H      726.318     564.937    -393.848
  P      723.490     565.263    -394.385
  C      722.119     566.398    -396.263
  O      722.258     566.167    -394.868
  C      721.810     567.869    -396.551
  O      722.930     568.683    -396.108
  C      721.579     568.179    -398.036
  O      720.665     569.283    -398.115
  C      722.969     568.606    -398.471
  O      722.948     569.249    -399.720
  C      723.398     569.427    -397.257
  N      724.833     569.659    -397.213
  C      725.245     570.936    -396.823
  O      724.409     571.799    -396.542
  N      726.587     571.212    -396.783
  C      727.439     570.319    -397.164
  N      728.757     570.663    -397.114
  C      727.046     568.973    -397.643
  C      725.741     568.716    -397.632
  O      723.334     564.667    -393.027
  O      723.569     564.128    -395.518
  H      722.821     568.597    -400.446
  H      723.827     563.280    -395.110
  H      727.800     568.268    -397.973
  H      725.354     567.752    -397.966
  H      722.888     570.405    -397.244
  H      723.619     567.730    -398.591
  H      721.187     567.324    -398.600
  H      720.941     568.165    -395.944
  H      728.980     571.601    -396.795
  H      721.302     565.764    -396.614
  H      729.510     570.056    -397.409
  H      723.035     566.110    -396.786
  P      719.250     569.196    -398.864
  C      718.920     571.559    -399.845
  O      718.542     570.635    -398.829
  O      718.378     568.080    -398.385
  O      719.612     568.999    -400.412
  H      718.912     568.471    -400.838
  H      718.382     572.474    -399.713
  H      718.692     571.146    -400.805
  H      719.971     571.751    -399.780

 6  7  8  9  10  11  12  13  14  15  16  26  30  31  32  33  35 0
 6-311+G(2d,p)
 ****
 37  38 0
 6-311+G(2d,p)
 ****
 1  2  3  4  5  17  18  19  20  21  22  23  24  25 0
 3-21G
 ****
 27  28  29  34  36  39  40  41  42  43  44  45  46 0
 3-21G
 ****


