%nproc=1
%NoSave
%Mem=1900MB
#P OB98/GEN NMR

erre ene a

0 1
  C     -444.706    -156.697    -345.804
  O     -443.524    -155.900    -345.835
  P     -443.679    -154.329    -346.121
  C     -443.459    -152.809    -348.208
  O     -443.595    -154.126    -347.715
  C     -442.889    -152.802    -349.626
  O     -441.589    -153.467    -349.620
  C     -443.751    -153.520    -350.663
  O     -443.579    -152.837    -351.912
  C     -443.114    -154.896    -350.762
  O     -443.447    -155.557    -351.974
  C     -441.646    -154.520    -350.605
  N     -439.774    -159.092    -351.956
  C     -440.528    -158.194    -352.628
  N     -440.986    -156.998    -352.195
  C     -440.585    -156.759    -350.943
  C     -439.849    -157.588    -350.117
  C     -439.417    -158.807    -350.670
  N     -438.640    -159.721    -350.000
  N     -439.656    -157.013    -348.876
  C     -440.280    -155.849    -348.947
  N     -440.839    -155.644    -350.180
  O     -442.284    -153.741    -345.596
  O     -444.835    -153.669    -345.447
  H     -444.390    -155.396    -352.169
  H     -442.432    -153.203    -344.791
  H     -440.794    -158.474    -353.640
  H     -440.362    -155.131    -348.140
  H     -441.216    -154.128    -351.539
  H     -443.455    -155.521    -349.925
  H     -444.819    -153.565    -350.402
  H     -442.709    -151.762    -349.925
  H     -442.774    -152.255    -347.552
  H     -438.263    -160.500    -350.512
  H     -438.222    -159.437    -349.120
  H     -444.431    -152.305    -348.189
  P     -444.742    -153.015    -353.013
  C     -444.662    -154.084    -355.378
  O     -444.244    -154.153    -354.022
  O     -444.637    -151.670    -353.877
  O     -446.110    -153.199    -352.433
  H     -445.503    -151.451    -354.266
  H     -443.862    -154.489    -356.001
  H     -444.871    -153.053    -355.682
  H     -445.556    -154.694    -355.511
  H     -444.445    -157.715    -345.604
  H     -445.203    -156.635    -346.750
  H     -445.358    -156.339    -345.035

 3  4  5  6  7  8  9  10  11  12  22  25  29  30  31  32 0
 6-311+G(2d,p)
 ****
 33  36  37 0
 6-311+G(2d,p)
 ****
 1  2  13  14  15  16  17  18  19  20  21  23  24  26 0
 3-21G
 ****
 27  28  34  35  38  39  40  41  42  43  44  45  46  47  48 0
 3-21G
 ****


