%nproc=1
%NoSave
%Mem=1900MB
#P OB98/GEN NMR

erre ene a

0 1
  C      121.050     -95.385      45.100
  O      119.655     -95.617      45.144
  H      121.246     -94.373      45.464
  H      121.427     -95.472      44.077
  H      121.568     -96.098      45.749
  P      119.081     -96.924      44.405
  C      118.576     -95.668      42.207
  O      119.357     -96.682      42.839
  C      118.694     -95.747      40.685
  O      120.073     -95.646      40.272
  C      118.205     -97.059      40.090
  O      116.819     -97.282      40.209
  C      118.839     -97.030      38.707
  O      118.079     -96.257      37.776
  C      120.186     -96.328      39.003
  N      121.311     -97.259      38.992
  C      122.233     -97.083      37.967
  O      122.128     -96.221      37.092
  N      123.284     -97.964      37.954
  C      123.471     -99.002      38.819
  O      124.423     -99.769      38.740
  C      122.439     -99.162      39.859
  C      121.423     -98.294      39.898
  O      117.658     -97.277      44.723
  O      120.130     -98.071      44.785
  H      117.207     -96.690      37.695
  H      119.761     -98.970      44.597
  H      123.974     -97.844      37.227
  H      122.546     -99.984      40.553
  H      120.651     -98.389      40.660
  H      120.384     -95.551      38.251
  H      118.948     -98.031      38.284
  H      118.687     -97.885      40.634
  H      118.155     -94.893      40.258
  H      118.951     -94.697      42.548
  H      117.528     -95.772      42.511
  P      116.170     -98.722      40.440
  C      115.849     -99.360      37.924
  O      116.490     -99.638      39.163
  O      114.779     -98.746      40.993
  O      117.151     -99.348      41.560
  H      116.601     -99.919      42.136
  H      116.176    -100.064      37.187
  H      116.100     -98.369      37.607
  H      114.789     -99.438      38.045

 6  7  8  9  10  11  12  13  14  15  16  26  31  32  33  34  35 0
 6-311+G(2d,p)
 ****
 36  37 0
 6-311+G(2d,p)
 ****
 1  2  3  4  5  17  18  19  20  21  22  23  24  25 0
 3-21G
 ****
 27  28  29  30  38  39  40  41  42  43  44  45 0
 3-21G
 ****


