%nproc=1
%NoSave
%Mem=1900MB
#P OB98/GEN NMR

erre ene a

0 1
  C      153.808    -107.549     329.330
  O      154.330    -108.558     328.488
  H      154.439    -106.660     329.279
  H      152.801    -107.290     328.987
  H      153.748    -107.905     330.365
  P      155.732    -109.208     328.921
  C      154.503    -110.826     330.544
  O      155.383    -110.689     329.438
  C      153.745    -112.153     330.463
  O      152.994    -112.185     329.221
  C      154.661    -113.382     330.485
  O      154.033    -114.412     331.256
  C      154.733    -113.798     329.027
  O      155.040    -115.178     328.873
  C      153.344    -113.404     328.531
  N      151.783    -115.354     324.077
  C      151.567    -115.732     325.354
  N      152.014    -115.152     326.487
  C      152.719    -114.041     326.204
  C      153.023    -113.529     324.953
  C      152.527    -114.242     323.849
  N      152.774    -113.882     322.544
  N      153.801    -112.390     325.072
  C      153.955    -112.219     326.370
  N      153.327    -113.195     327.093
  O      156.075    -108.411     330.270
  O      156.830    -109.111     327.918
  H      154.720    -115.468     327.993
  H      156.447    -107.536     330.043
  H      150.960    -116.625     325.483
  H      154.520    -111.420     326.834
  H      152.584    -114.165     328.760
  H      155.509    -113.215     328.515
  H      155.646    -113.169     330.903
  H      153.010    -112.189     331.279
  H      153.789    -109.995     330.536
  H      152.426    -114.483     321.812
  H      153.377    -113.093     322.351
  H      155.082    -110.788     331.474
  P      154.898    -115.062     332.441
  C      154.572    -113.264     334.282
  O      154.283    -114.584     333.847
  O      156.294    -114.277     332.352
  O      155.093    -116.537     332.301
  H      157.032    -114.914     332.350
  H      154.100    -113.088     335.226
  H      154.204    -112.563     333.563
  H      155.630    -113.146     334.385

 6  7  8  9  10  11  12  13  14  15  25  28  32  33  34  35 0
 6-311+G(2d,p)
 ****
 36  39  40 0
 6-311+G(2d,p)
 ****
 1  2  3  4  5  16  17  18  19  20  21  22  23  24 0
 3-21G
 ****
 26  27  29  30  31  37  38  41  42  43  44  45  46  47 0
 3-21G
 ****
 48 0
 3-21G
 ****


