%nproc=1
%NoSave
%Mem=1900MB
#P OB98/GEN NMR

erre ene a

0 1
  C      261.020      68.266     281.120
  O      262.398      68.311     280.817
  H      260.722      69.226     281.546
  H      260.823      67.481     281.855
  H      260.427      68.084     280.217
  P      263.057      67.093     280.010
  C      262.050      66.836     277.646
  O      263.014      67.493     278.460
  C      262.275      67.167     276.166
  O      262.177      68.614     275.990
  C      263.658      66.741     275.626
  O      263.488      66.446     274.230
  C      264.449      68.021     275.827
  O      265.691      68.002     275.166
  C      263.400      69.042     275.357
  N      263.692      70.433     275.682
  C      264.358      71.198     274.731
  O      264.716      70.779     273.627
  N      264.620      72.497     275.084
  C      264.272      73.096     276.261
  O      264.506      74.273     276.509
  C      263.576      72.236     277.230
  C      263.316      70.967     276.907
  O      262.519      65.738     280.331
  O      264.615      67.208     280.363
  H      264.849      66.539     281.037
  H      266.262      68.705     275.542
  H      265.095      73.069     274.400
  H      263.295      72.673     278.180
  H      262.797      70.308     277.594
  H      263.255      68.951     274.275
  H      264.678      68.158     276.889
  H      264.068      65.868     276.136
  H      261.467      66.717     275.575
  H      261.056      67.177     277.950
  H      262.123      65.756     277.804
  P      263.557      64.963     273.627
  C      262.374      62.950     274.759
  O      262.215      64.184     274.063
  O      264.815      64.224     273.963
  O      263.402      65.137     272.044
  H      263.825      64.392     271.584
  H      261.411      62.542     274.987
  H      262.913      63.120     275.667
  H      262.917      62.262     274.145

 6  7  8  9  10  11  12  13  14  15  16  27  31  32  33  34  35 0
 6-311+G(2d,p)
 ****
 36  37 0
 6-311+G(2d,p)
 ****
 1  2  3  4  5  17  18  19  20  21  22  23  24  25 0
 3-21G
 ****
 26  28  29  30  38  39  40  41  42  43  44  45 0
 3-21G
 ****


