%nproc=1
%NoSave
%Mem=1900MB
#P OB98/GEN NMR

erre ene a

0 1
  C     -278.135       2.094    -174.276
  O     -278.595       3.437    -174.288
  P     -278.764       4.155    -175.711
  C     -276.231       4.644    -175.523
  O     -277.512       5.149    -175.872
  C     -275.146       5.679    -175.795
  O     -273.865       5.144    -175.359
  C     -275.003       6.072    -177.274
  O     -274.841       7.493    -177.371
  C     -273.689       5.429    -177.685
  O     -273.086       6.107    -178.781
  C     -272.913       5.519    -176.374
  N     -268.256       4.813    -178.199
  C     -269.084       5.914    -178.294
  N     -268.625       6.951    -179.032
  N     -270.258       5.994    -177.725
  C     -270.575       4.896    -176.995
  C     -269.835       3.750    -176.815
  C     -268.565       3.652    -177.501
  O     -267.826       2.670    -177.528
  N     -270.483       2.864    -175.991
  C     -271.611       3.469    -175.676
  N     -271.734       4.685    -176.299
  O     -280.003       5.138    -175.470
  O     -279.015       3.240    -176.861
  H     -273.729       6.097    -179.516
  H     -280.703       4.955    -176.128
  H     -267.370       4.800    -178.671
  H     -272.375       3.055    -175.030
  H     -272.600       6.556    -176.183
  H     -273.873       4.389    -177.976
  H     -267.716       6.972    -179.466
  H     -275.837       5.751    -177.907
  H     -269.208       7.775    -179.093
  H     -275.347       6.565    -175.177
  H     -276.026       3.746    -176.114
  H     -276.235       4.372    -174.462
  P     -276.044       8.290    -178.080
  C     -275.017       8.392    -180.469
  O     -275.378       9.092    -179.295
  O     -276.403       9.434    -177.019
  O     -277.219       7.435    -178.421
  H     -277.325       9.729    -177.134
  H     -275.392       7.365    -180.472
  H     -273.927       8.369    -180.547
  H     -275.424       8.919    -181.336
  H     -278.071       1.748    -173.266
  H     -277.168       2.044    -174.732
  H     -278.819       1.478    -174.822

 3  4  5  6  7  8  9  10  11  12  23  26  30  31  33  0
 6-311+G(2d,p)
 ****
 35  36  37  38 0
 6-311+G(2d,p)
 ****
 1  2  13  14  15  16  17  18  19  20  21  22  24  25  27  28  29 0
 3-21G
 ****
 32  34  39  40  41  42  43  44  45  46  47  48  49 0
 3-21G
 ****


