%nproc=1
%NoSave
%Mem=1900MB
#P OB98/GEN NMR

erre ene a

0 1
  C      123.398     549.343     456.089
  O      123.157     548.904     454.771
  H      122.993     550.356     456.206
  H      124.476     549.372     456.286
  H      122.908     548.683     456.811
  P      123.656     547.426     454.402
  C      125.845     547.136     453.026
  O      125.253     547.514     454.267
  C      125.789     548.303     452.052
  O      126.295     549.506     452.700
  C      126.653     548.123     450.811
  O      126.046     547.278     449.852
  C      126.807     549.557     450.341
  O      125.681     549.986     449.561
  C      126.867     550.343     451.663
  N      130.469     553.922     451.105
  C      129.185     553.866     450.703
  N      128.281     552.878     450.911
  C      128.833     551.878     451.626
  C      130.126     551.796     452.095
  C      130.967     552.884     451.808
  N      132.293     552.928     452.188
  N      130.327     550.596     452.748
  C      129.169     549.961     452.681
  N      128.232     550.712     452.017
  O      123.153     547.240     452.897
  O      123.152     546.341     455.295
  H      125.719     549.478     448.734
  H      122.332     546.712     452.885
  H      128.825     554.727     450.147
  H      128.961     548.985     453.093
  H      126.282     551.261     451.627
  H      127.700     549.674     449.731
  H      127.647     547.727     451.095
  H      124.743     548.489     451.781
  H      125.300     546.281     452.602
  H      126.886     546.831     453.207
  H      132.854     553.696     451.901
  H      132.708     552.102     452.624
  P      126.958     546.148     449.161
  C      127.280     546.815     446.650
  O      127.780     546.854     447.992
  O      125.902     545.225     448.386
  O      127.787     545.358     450.113
  H      126.192     544.293     448.417
  H      127.955     547.335     446.003
  H      126.319     547.283     446.614
  H      127.193     545.797     446.331

 6  7  8  9  10  11  12  13  14  15  25  28  32  33  34  35 0
 6-311+G(2d,p)
 ****
 36  37  40 0
 6-311+G(2d,p)
 ****
 1  2  3  4  5  16  17  18  19  20  21  22  23  24 0
 3-21G
 ****
 26  27  29  30  31  38  39 41  42  43  44  45  46  47  48 0
 3-21G
 ****


