%nproc=1
%NoSave
%Mem=1900MB
#P OB98/GEN NMR

erre ene a

0 1
  C     -125.678     419.211      36.742
  O     -126.295     420.501      36.696
  P     -126.420     421.289      38.091
  C     -128.823     420.364      38.433
  O     -127.525     420.551      38.984
  C     -129.824     420.048      39.543
  O     -129.510     418.795      40.203
  C     -129.850     421.090      40.652
  O     -130.527     422.261      40.233
  C     -130.553     420.313      41.762
  O     -131.974     420.292      41.544
  C     -129.980     418.897      41.572
  N     -128.782     417.451      46.330
  C     -129.973     417.672      45.729
  N     -130.207     418.058      44.453
  C     -129.053     418.204      43.782
  C     -127.767     418.007      44.259
  C     -127.651     417.618      45.605
  N     -126.440     417.403      46.228
  N     -126.837     418.254      43.276
  C     -127.544     418.618      42.228
  N     -128.890     418.590      42.477
  O     -127.123     422.664      37.673
  O     -125.106     421.522      38.763
  H     -132.373     419.772      42.270
  H     -126.481     423.398      37.728
  H     -130.851     417.526      46.347
  H     -127.131     418.907      41.265
  H     -130.742     418.118      41.709
  H     -130.380     420.734      42.756
  H     -128.826     421.341      40.959
  H     -130.818     419.957      39.088
  H     -128.807     419.551      37.703
  H     -126.443     417.204      47.215
  H     -125.588     417.609      45.720
  H     -129.106     421.269      37.889
  P     -129.727     423.653      40.302
  C     -129.511     423.636      42.861
  O     -128.829     423.510      41.625
  O     -130.880     424.659      40.761
  O     -128.995     424.017      39.056
  H     -131.409     424.293      41.495
  H     -128.794     423.482      43.672
  H     -130.303     422.883      42.940
  H     -129.941     424.638      42.949
  H     -125.654     418.792      35.758
  H     -126.239     418.570      37.389
  H     -124.679     419.306      37.113

 3  4  5  6  7  8  9  10  11  12  22  25  29  30  31  32 0
 6-311+G(2d,p)
 ****
 33  36  37 0
 6-311+G(2d,p)
 ****
 1  2  13  14  15  16  17  18  19  20  21  23  24  26 0
 3-21G
 ****
 27  28  34  35  38  39  40  41  42  43  44  45  46  47  48 0
 3-21G
 ****


