%nproc=1
%NoSave
%Mem=1900MB
#P OB98/GEN NMR

erre ene a

0 1
  C     -177.652      95.055    -721.978
  O     -178.942      95.163    -721.417
  H     -177.544      94.060    -722.424
  H     -176.888      95.174    -721.205
  H     -177.507      95.807    -722.758
  P     -179.418      96.573    -720.834
  C     -181.823      95.851    -720.199
  O     -180.543      96.277    -719.722
  C     -182.746      95.565    -719.015
  O     -182.450      94.253    -718.467
  C     -182.575      96.541    -717.846
  O     -183.188      97.782    -718.130
  C     -183.223      95.742    -716.722
  O     -184.651      95.872    -716.751
  C     -182.801      94.300    -717.061
  N     -181.693      93.848    -716.235
  C     -181.920      93.776    -714.852
  O     -183.011      94.060    -714.346
  N     -180.840      93.420    -714.078
  C     -179.562      93.271    -714.521
  O     -178.598      93.212    -713.756
  C     -179.374      93.306    -715.974
  C     -180.422      93.586    -716.758
  O     -179.811      97.596    -721.864
  O     -178.176      97.074    -719.964
  H     -177.677      97.742    -720.466
  H     -184.833      96.825    -716.614
  H     -181.012      93.414    -713.078
  H     -178.384      93.116    -716.371
  H     -180.311      93.647    -717.839
  H     -183.640      93.608    -716.924
  H     -182.879      96.082    -715.747
  H     -181.512      96.675    -717.625
  H     -183.791      95.555    -719.383
  H     -181.693      94.939    -720.794
  H     -182.245      96.635    -720.841
  P     -182.576      99.140    -717.512
  C     -182.667     100.424    -719.740
  O     -183.111     100.378    -718.386
  O     -181.100      99.119    -717.268
  O     -183.377      99.310    -716.126
  H     -182.728      99.480    -715.403
  H     -183.082     101.284    -720.223
  H     -182.987      99.540    -720.250
  H     -181.599     100.483    -719.763

 6  7  8  9  10  11  12  13  14  15  16  27  31  32  33  34  35 0
 6-311+G(2d,p)
 ****
 36  37 0
 6-311+G(2d,p)
 ****
 1  2  3  4  5  17  18  19  20  21  22  23  24  25 0
 3-21G
 ****
 26  28  29  30  38  39  40  41  42  43  44  45 0
 3-21G
 ****


