%nproc=1
%NoSave
%Mem=1900MB
#P OB98/GEN NMR

erre ene a

0 1
  C       13.652     109.389      30.655
  O       14.167     110.564      30.050
  P       14.633     110.570      28.514
  C       16.441     109.253      27.246
  O       16.028     109.779      28.502
  C       17.897     108.802      27.320
  O       18.704     109.931      27.729
  C       18.204     107.700      28.333
  O       17.967     106.382      27.863
  C       19.702     107.903      28.525
  O       20.418     107.320      27.420
  C       19.829     109.428      28.493
  N       22.727     111.220      32.311
  C       23.041     110.727      31.091
  N       22.211     110.251      30.138
  C       20.932     110.360      30.529
  C       20.457     110.846      31.736
  C       21.421     111.292      32.657
  N       21.097     111.815      33.890
  N       19.078     110.781      31.781
  C       18.731     110.279      30.614
  N       19.813     110.016      29.820
  O       14.643     111.915      27.877
  O       13.635     109.549      27.796
  H       21.356     107.570      27.526
  H       13.662     109.681      26.829
  H       24.100     110.706      30.850
  H       17.714     110.085      30.304
  H       20.741     109.764      27.987
  H       20.082     107.430      29.435
  H       17.692     107.880      29.286
  H       18.218     108.505      26.313
  H       16.347     110.045      26.494
  H       21.842     112.228      34.428
  H       20.126     112.019      34.080
  H       15.784     108.427      26.960
  P       17.708     105.243      28.970
  C       19.175     104.311      30.927
  O       19.108     105.057      29.732
  O       17.092     103.994      28.444
  O       16.800     106.001      30.050
  H       17.243     106.714      30.537
  H       20.227     104.168      31.192
  H       18.713     103.329      30.801
  H       18.679     104.853      31.737
  H       13.401     109.593      31.675
  H       14.390     108.615      30.617
  H       12.776     109.072      30.129

 3  4  5  6  7  8  9  10  11  12  22  25  29  30  31  32 0
 6-311+G(2d,p)
 ****
 33  36  37 0
 6-311+G(2d,p)
 ****
 1  2  13  14  15  16  17  18  19  20  21  23  24  26 0
 3-21G
 ****
 27  28  34  35  38  39  40  41  42  43  44  45  46  47  48 0
 3-21G
 ****


