%nproc=1
%NoSave
%Mem=1900MB
#P OB98/GEN NMR

erre ene a

0 1
  C       18.368     415.666      89.351
  O       18.781     414.345      89.082
  H       17.612     415.643      90.138
  H       17.925     416.102      88.452
  H       19.204     416.286      89.686
  P       20.170     414.112      88.325
  C       18.859     412.896      86.462
  O       19.856     413.862      86.768
  C       18.074     413.271      85.205
  O       17.401     414.534      85.413
  C       18.975     413.447      83.980
  O       19.234     412.251      83.265
  C       18.169     414.427      83.132
  O       17.243     413.738      82.277
  C       17.415     415.261      84.177
  N       17.395     420.218      82.925
  C       16.722     419.170      82.326
  N       15.985     419.486      81.239
  N       16.788     417.936      82.751
  C       17.641     417.761      83.784
  C       18.378     418.719      84.447
  C       18.243     420.094      84.019
  O       18.806     421.057      84.524
  N       19.168     418.160      85.422
  C       18.974     416.863      85.290
  N       17.996     416.577      84.364
  O       20.624     412.655      88.822
  O       21.238     415.124      88.608
  H       16.612     413.254      82.845
  H       21.598     412.609      88.846
  H       17.283     421.150      82.572
  H       19.476     416.095      85.862
  H       16.369     415.415      83.885
  H       18.825     415.011      82.483
  H       15.966     420.400      80.820
  H       19.915     413.931      84.258
  H       15.630     418.723      80.661
  H       17.296     412.520      85.026
  H       18.191     412.856      87.322
  H       19.311     411.906      86.350
  P       20.706     411.630      83.212
  C       20.774     411.843      80.596
  O       21.393     412.075      81.843
  O       20.432     410.068      82.997
  O       21.556     411.890      84.414
  H       20.494     409.589      83.844
  H       21.399     412.217      79.812
  H       19.829     412.344      80.568
  H       20.624     410.792      80.462

 6  7  8  9  10  11  12  13  14  15  26  29  33  34 0
 6-311+G(2d,p)
 ****
 36  38  39  40  41 0
 6-311+G(2d,p)
 ****
 1  2  3  4  5  16  17  18  19  20  21  22  23  24  25 0
 3-21G
 ****
 27  28  30  31  32  35  37  42  43  44  45  46  47 0
 3-21G
 ****
 48  49 0
 3-21G
 ****


