%nproc=1
%NoSave
%Mem=1900MB
#P OB98/GEN NMR

erre ene a

0 1
  C     -223.070    -328.383     931.933
  O     -223.308    -329.787     931.979
  P     -222.024    -330.750     931.942
  C     -221.914    -330.242     929.384
  O     -221.847    -331.223     930.413
  C     -221.233    -330.767     928.119
  O     -219.810    -330.847     928.314
  C     -221.675    -332.171     927.708
  O     -222.958    -332.155     927.095
  C     -220.528    -332.548     926.759
  O     -220.726    -331.933     925.482
  C     -219.309    -331.914     927.474
  N     -215.557    -335.422     927.521
  C     -216.071    -334.661     926.523
  N     -217.085    -333.759     926.587
  C     -217.577    -333.685     927.830
  C     -217.171    -334.408     928.949
  C     -216.106    -335.315     928.759
  N     -215.588    -336.077     929.780
  N     -217.923    -334.079     930.056
  C     -218.765    -333.158     929.620
  N     -218.589    -332.870     928.296
  O     -222.541    -332.070     932.678
  O     -220.795    -330.187     932.578
  H     -221.671    -332.067     925.237
  H     -221.815    -332.480     933.186
  H     -215.605    -334.785     925.543
  H     -219.517    -332.673     930.231
  H     -218.586    -331.486     926.770
  H     -220.447    -333.632     926.607
  H     -221.669    -332.844     928.568
  H     -221.430    -330.055     927.302
  H     -221.397    -329.336     929.707
  H     -214.939    -336.802     929.524
  H     -216.086    -336.103     930.655
  H     -222.961    -329.993     929.191
  P     -224.126    -332.956     927.856
  C     -223.346    -335.291     927.114
  O     -224.330    -334.278     926.965
  O     -225.417    -332.083     927.471
  O     -223.907    -333.169     929.318
  H     -225.444    -331.900     926.524
  H     -223.618    -336.140     926.495
  H     -223.261    -335.604     928.149
  H     -222.357    -334.907     926.768
  H     -224.004    -327.862     931.964
  H     -222.555    -328.138     931.028
  H     -222.472    -328.095     932.772

 3  4  5  6  7  8  9  10  11  12  22  25  29  30  31  32 0
 6-311+G(2d,p)
 ****
 33  36  37 0
 6-311+G(2d,p)
 ****
 1  2  13  14  15  16  17  18  19  20  21  23  24  26 0
 3-21G
 ****
 27  28  34  35  38  39  40  41  42  43  44  45  46  47  48 0
 3-21G
 ****


