%nproc=1
%NoSave
%Mem=1900MB
#P OB98/GEN NMR

erre ene a

0 1
  C      622.502     -89.026    -330.721
  O      623.428     -87.962    -330.618
  H      621.491     -88.609    -330.742
  H      622.590     -89.695    -329.862
  H      622.674     -89.582    -331.646
  P      624.978     -88.366    -330.534
  C      626.917     -87.787    -332.134
  O      625.536     -88.113    -332.021
  C      627.247     -87.346    -333.556
  O      627.091     -88.485    -334.444
  C      626.336     -86.228    -334.074
  O      627.104     -85.324    -334.864
  C      625.341     -86.957    -334.959
  O      624.782     -86.112    -335.959
  C      626.188     -88.107    -335.500
  N      622.822     -89.771    -338.954
  C      623.576     -88.649    -338.887
  N      624.463     -88.291    -337.938
  C      624.570     -89.254    -337.005
  C      623.866     -90.442    -336.933
  C      622.949     -90.688    -337.970
  N      622.159     -91.813    -338.026
  N      624.222     -91.147    -335.799
  C      625.134     -90.400    -335.204
  N      625.364     -89.238    -335.888
  O      625.266     -89.715    -329.966
  O      625.592     -87.132    -329.719
  H      624.181     -85.470    -335.522
  H      625.240     -86.284    -330.041
  H      623.443     -87.944    -339.709
  H      625.639     -90.645    -334.280
  H      626.776     -87.817    -336.380
  H      624.514     -87.341    -334.345
  H      625.843     -85.685    -333.267
  H      628.301     -87.052    -333.603
  H      627.530     -88.660    -331.872
  H      621.534     -91.920    -338.812
  H      622.251     -92.523    -337.312
  H      627.135     -86.985    -331.425
  P      628.053     -84.264    -334.116
  C      629.999     -84.359    -332.425
  O      629.248     -85.065    -333.406
  O      627.357     -83.261    -333.259
  O      628.799     -83.550    -335.339
  H      628.914     -82.606    -335.134
  H      630.760     -84.999    -332.030
  H      629.349     -84.048    -331.634
  H      630.452     -83.500    -332.873

 6  7  8  9  10  11  12  13  14  15  25  28  32  33  34  35 0
 6-311+G(2d,p)
 ****
 36  39  40 0
 6-311+G(2d,p)
 ****
 1  2  3  4  5  16  17  18  19  20  21  22  23  24 0
 3-21G
 ****
 26  27  29  30  31  37  38  41  42  43  44  45  46  47 0
 3-21G
 ****
 48 0
 3-21G
 ****


