%nproc=1
%NoSave
%Mem=1900MB
#P OB98/GEN NMR

erre ene a

0 1
  C     -338.652     -53.540       9.517
  O     -339.462     -54.193      10.501
  P     -339.138     -55.660      11.063
  C     -340.271     -56.351      13.276
  O     -340.409     -56.213      11.865
  C     -341.631     -56.474      13.970
  O     -342.304     -55.200      13.994
  C     -342.605     -57.434      13.301
  O     -342.264     -58.781      13.572
  C     -343.929     -56.975      13.902
  O     -344.132     -57.550      15.205
  C     -343.723     -55.451      14.002
  N     -344.400     -54.723      12.937
  C     -345.793     -54.661      13.010
  O     -346.400     -55.248      13.909
  N     -346.472     -53.952      12.048
  C     -345.822     -53.419      11.059
  N     -346.545     -52.724      10.142
  C     -344.362     -53.540      10.895
  C     -343.721     -54.197      11.863
  O     -337.854     -55.747      11.824
  O     -339.079     -56.597       9.765
  H     -343.382     -57.252      15.757
  H     -338.448     -57.324       9.925
  H     -343.861     -53.107      10.044
  H     -342.646     -54.324      11.825
  H     -344.089     -55.078      14.966
  H     -344.789     -57.258      13.290
  H     -342.618     -57.255      12.218
  H     -341.448     -56.777      15.010
  H     -347.544     -52.655      10.287
  H     -339.750     -55.464      13.656
  H     -346.136     -52.272       9.338
  H     -339.657     -57.234      13.485
  P     -341.673     -59.703      12.404
  C     -340.289     -61.866      12.356
  O     -341.256     -61.104      13.057
  O     -340.629     -59.067      11.545
  O     -342.965     -60.091      11.536
  H     -342.699     -60.199      10.605
  H     -339.810     -62.553      13.057
  H     -339.529     -61.220      11.909
  H     -340.783     -62.445      11.571
  H     -339.063     -52.576       9.300
  H     -338.632     -54.129       8.624
  H     -337.656     -53.427       9.892

 3  4  5  6  7  8  9  10  11  12  13  23  27  28  29  30  32 0
 6-311+G(2d,p)
 ****
 34  35 0
 6-311+G(2d,p)
 ****
 1  2  14  15  16  17  18  19  20  21  22  24  25  26 0
 3-21G
 ****
 31  33  36  37  38  39  40  41  42  43  44  45  46 0
 3-21G
 ****


