%nproc=1
%NoSave
%Mem=1900MB
#P OB98/GEN NMR

erre ene a

0 1
  C      469.930    -109.495     335.048
  O      469.786    -109.595     333.638
  P      469.961    -111.047     332.968
  C      472.452    -110.473     332.505
  O      471.524    -111.391     333.085
  C      473.883    -110.987     332.671
  O      474.260    -110.962     334.062
  C      474.099    -112.421     332.210
  O      474.279    -112.510     330.800
  C      475.386    -112.769     332.934
  O      476.512    -112.208     332.237
  C      475.190    -112.057     334.283
  N      476.436    -114.900     338.347
  C      477.192    -114.205     337.477
  N      476.784    -113.479     336.413
  C      475.451    -113.552     336.263
  C      474.556    -114.252     337.063
  C      475.095    -114.945     338.155
  N      474.322    -115.634     339.069
  N      473.266    -114.088     336.597
  C      473.377    -113.298     335.558
  N      474.677    -112.934     335.317
  O      469.757    -110.756     331.406
  O      469.017    -112.090     333.474
  H      476.492    -111.242     332.395
  H      469.481    -111.571     330.952
  H      478.265    -114.222     337.656
  H      472.550    -112.951     334.948
  H      476.122    -111.616     334.659
  H      475.559    -113.845     333.014
  H      473.289    -113.080     332.557
  H      474.555    -110.304     332.126
  H      472.364    -109.504     332.999
  H      474.758    -115.943     339.921
  H      473.315    -115.493     339.035
  H      472.212    -110.351     331.438
  P      473.816    -113.881     330.100
  C      476.166    -114.916     329.725
  O      474.949    -114.952     330.448
  O      474.031    -113.575     328.541
  O      472.413    -114.280     330.413
  H      473.441    -114.128     328.001
  H      476.925    -115.482     330.275
  H      476.523    -113.894     329.588
  H      476.023    -115.389     328.743
  H      469.788    -108.478     335.350
  H      470.910    -109.817     335.330
  H      469.200    -110.114     335.526

 3  4  5  6  7  8  9  10  11  12  22  25  29  30  31  32 0
 6-311+G(2d,p)
 ****
 33  36  37 0
 6-311+G(2d,p)
 ****
 1  2  13  14  15  16  17  18  19  20  21  23  24  26 0
 3-21G
 ****
 27  28  34  35  38  39  40  41  42  43  44  45  46  47  48 0
 3-21G
 ****


