%nproc=1
%NoSave
%Mem=1900MB
#P OB98/GEN NMR

erre ene a

0 1
  C      -84.925    -661.971      30.538
  O      -85.388    -660.671      30.853
  H      -84.631    -661.991      29.486
  H      -85.723    -662.701      30.701
  H      -84.058    -662.221      31.154
  P      -85.853    -660.428      32.369
  C      -87.503    -658.479      31.829
  O      -86.293    -658.887      32.453
  C      -87.914    -657.088      32.325
  O      -88.189    -657.164      33.755
  C      -86.833    -656.010      32.134
  O      -87.490    -654.742      31.977
  C      -86.122    -656.052      33.477
  O      -85.295    -654.923      33.646
  C      -87.329    -656.193      34.400
  N      -85.465    -654.761      38.937
  C      -85.739    -654.062      37.818
  N      -86.245    -654.510      36.653
  C      -86.495    -655.830      36.717
  C      -86.276    -656.673      37.794
  C      -85.726    -656.090      38.948
  N      -85.438    -656.803      40.089
  N      -86.649    -657.970      37.478
  C      -87.089    -657.904      36.237
  N      -87.006    -656.633      35.735
  O      -84.483    -660.479      33.188
  O      -86.861    -661.397      32.893
  H      -85.752    -654.107      33.347
  H      -84.344    -661.376      33.549
  H      -85.520    -652.995      37.865
  H      -87.463    -658.737      35.659
  H      -87.890    -655.255      34.483
  H      -85.468    -656.930      33.548
  H      -86.180    -656.197      31.274
  H      -88.853    -656.800      31.838
  H      -88.284    -659.208      32.075
  H      -87.361    -658.454      30.744
  H      -85.034    -656.313      40.871
  H      -85.613    -657.798      40.104
  P      -87.179    -653.860      30.668
  C      -87.373    -651.445      31.661
  O      -87.925    -652.446      30.813
  O      -88.076    -654.590      29.553
  O      -85.749    -653.807      30.245
  H      -87.668    -654.460      28.674
  H      -87.995    -650.575      31.638
  H      -86.391    -651.191      31.320
  H      -87.318    -651.817      32.663

 6  7  8  9  10  11  12  13  14  15  25  28  32  33  34  35 0
 6-311+G(2d,p)
 ****
 36  37  40 0
 6-311+G(2d,p)
 ****
 1  2  3  4  5  16  17  18  19  20  21  22  23  24 0
 3-21G
 ****
 26  27  29  30  31  38  39 41  42  43  44  45  46  47  48 0
 3-21G
 ****


