%nproc=1
%NoSave
%Mem=1900MB
#P OB98/GEN NMR

erre ene a

0 1
  C      -35.045     310.782    -169.429
  O      -35.151     311.825    -168.456
  P      -36.241     312.967    -168.761
  C      -34.456     314.770    -169.293
  O      -35.556     314.392    -168.477
  C      -33.810     316.071    -168.794
  O      -34.753     317.179    -168.856
  C      -33.302     315.993    -167.352
  O      -32.116     316.801    -167.281
  C      -34.411     316.665    -166.567
  O      -33.962     317.087    -165.280
  C      -34.773     317.786    -167.540
  N      -37.274     320.900    -164.451
  C      -35.984     320.417    -164.374
  N      -35.227     320.874    -163.346
  N      -35.473     319.566    -165.227
  C      -36.330     319.233    -166.222
  C      -37.625     319.654    -166.416
  C      -38.187     320.572    -165.449
  O      -39.322     321.032    -165.473
  N      -38.161     319.115    -167.567
  C      -37.206     318.316    -168.015
  N      -36.062     318.398    -167.271
  O      -37.290     312.799    -167.563
  O      -36.895     312.828    -170.095
  H      -33.726     316.281    -164.773
  H      -38.073     312.309    -167.869
  H      -37.622     321.544    -163.759
  H      -37.284     317.687    -168.885
  H      -34.036     318.603    -167.527
  H      -35.252     315.976    -166.434
  H      -35.543     321.566    -162.683
  H      -33.086     314.979    -166.999
  H      -34.265     320.567    -163.288
  H      -32.977     316.313    -169.471
  H      -34.791     314.911    -170.326
  H      -33.731     313.952    -169.317
  P      -30.746     316.086    -166.863
  C      -29.890     317.271    -164.726
  O      -29.834     317.183    -166.136
  O      -30.011     315.864    -168.273
  O      -30.917     314.792    -166.137
  H      -29.558     314.999    -168.269
  H      -28.946     317.684    -164.360
  H      -30.054     316.297    -164.265
  H      -30.703     317.948    -164.441
  H      -34.294     310.084    -169.123
  H      -34.777     311.203    -170.375
  H      -35.985     310.279    -169.516

 3  4  5  6  7  8  9  10  11  12  23  26  30  31 0
 6-311+G(2d,p)
 ****
 33  35  36  37  38 0
 6-311+G(2d,p)
 ****
 1  2  13  14  15  16  17  18  19  20  21  22  24  25 0
 3-21G
 ****
 27  28  29  32  34  39  40  41  42  43  44  45  46  47  48  49 0
 3-21G
 ****


