%nproc=1
%NoSave
%Mem=1900MB
#P OB98/GEN NMR

erre ene a

0 1
  C      115.795     -13.373     150.661
  O      115.093     -14.482     151.185
  H      116.784     -13.704     150.334
  H      115.921     -12.612     151.437
  H      115.263     -12.948     149.805
  P      113.536     -14.280     151.512
  C      112.147     -12.569     152.889
  O      113.435     -12.992     152.467
  C      112.240     -11.916     154.270
  O      112.431     -12.963     155.264
  C      113.403     -10.926     154.415
  O      112.978      -9.849     155.257
  C      114.458     -11.741     155.143
  O      115.408     -10.955     155.852
  C      113.579     -12.599     156.058
  N      114.273     -13.786     156.553
  C      114.831     -13.715     157.827
  O      114.709     -12.763     158.595
  N      115.561     -14.810     158.212
  C      115.799     -15.924     157.462
  O      116.481     -16.864     157.857
  C      115.193     -15.936     156.124
  C      114.472     -14.881     155.737
  O      113.216     -15.500     152.497
  O      112.631     -14.249     150.326
  H      112.933     -16.283     151.990
  H      115.885     -10.411     155.192
  H      115.972     -14.776     159.131
  H      115.370     -16.799     155.497
  H      114.026     -14.850     154.747
  H      113.215     -12.004     156.905
  H      115.004     -12.366     154.428
  H      113.774     -10.527     153.464
  H      111.281     -11.432     154.494
  H      111.481     -13.436     152.949
  H      111.742     -11.861     152.159
  P      112.454      -8.514     154.539
  C      113.645      -6.593     153.211
  O      113.765      -7.794     153.963
  O      112.034      -7.628     155.800
  O      111.364      -8.770     153.554
  H      112.615      -7.762     156.571
  H      114.617      -6.261     152.912
  H      113.180      -5.840     153.813
  H      113.047      -6.774     152.342

 6  7  8  9  10  11  12  13  14  15  16  27  31  32  33  34  35 0
 6-311+G(2d,p)
 ****
 36  37 0
 6-311+G(2d,p)
 ****
 1  2  3  4  5  17  18  19  20  21  22  23  24  25 0
 3-21G
 ****
 26  28  29  30  38  39  40  41  42  43  44  45 0
 3-21G
 ****


