%nproc=1
%NoSave
%Mem=1900MB
#P OB98/GEN NMR

erre ene a

0 1
  C     -481.120    1165.877     739.583
  O     -479.763    1166.155     739.175
  P     -478.970    1167.485     739.613
  C     -477.487    1168.590     737.812
  O     -477.615    1167.550     738.767
  C     -476.154    1168.479     737.055
  O     -475.057    1168.919     737.899
  C     -475.766    1167.082     736.633
  O     -476.531    1166.596     735.552
  C     -474.277    1167.261     736.312
  O     -474.079    1167.754     734.981
  C     -473.852    1168.346     737.349
  N     -472.994    1167.836     738.391
  C     -471.660    1168.225     738.351
  O     -471.225    1168.890     737.408
  N     -470.818    1167.817     739.374
  C     -471.265    1167.032     740.288
  N     -470.396    1166.683     741.280
  C     -472.626    1166.485     740.297
  C     -473.440    1166.932     739.335
  O     -478.775    1167.610     741.093
  O     -479.845    1168.698     739.059
  H     -479.680    1169.501     739.606
  H     -473.105    1167.760     734.827
  H     -472.956    1165.790     741.065
  H     -474.471    1166.589     739.274
  H     -473.360    1169.172     736.831
  H     -473.719    1166.332     736.405
  H     -475.868    1166.403     737.501
  H     -476.221    1169.142     736.176
  H     -469.466    1167.082     741.242
  H     -477.522    1169.547     738.340
  H     -470.650    1166.087     742.059
  H     -478.337    1168.555     737.119
  P     -477.372    1165.249     735.792
  C     -477.406    1164.364     733.353
  O     -478.141    1164.903     734.422
  O     -478.542    1165.687     736.785
  O     -476.566    1164.112     736.356
  H     -478.688    1164.984     737.454
  H     -478.079    1163.741     732.734
  H     -476.586    1163.723     733.692
  H     -476.992    1165.161     732.730
  H     -481.432    1164.940     739.171
  H     -481.765    1166.654     739.230
  H     -481.169    1165.831     740.651

 3  4  5  6  7  8  9  10  11  12  13  24  27  28  29  30  32 0
 6-311+G(2d,p)
 ****
 34  35 0
 6-311+G(2d,p)
 ****
 1  2  14  15  16  17  18  19  20  21  22  23  25  26 0
 3-21G
 ****
 31  33  36  37  38  39  40  41  42  43  44  45  46 0
 3-21G
 ****


