%nproc=1
%NoSave
%Mem=1900MB
#P OB98/GEN NMR

erre ene a

0 1
  C      402.807    -569.831    -516.150
  O      403.390    -568.676    -516.727
  P      404.986    -568.647    -516.898
  C      404.572    -567.573    -519.226
  O      405.347    -567.570    -518.037
  C      405.367    -566.996    -520.390
  O      405.506    -565.543    -520.225
  C      406.790    -567.569    -520.522
  O      407.154    -567.637    -521.916
  C      407.661    -566.516    -519.875
  O      409.006    -566.587    -520.342
  C      406.915    -565.237    -520.276
  N      410.482    -561.941    -518.890
  C      410.434    -562.771    -519.991
  N      411.533    -562.771    -520.784
  N      409.409    -563.508    -520.299
  C      408.386    -563.412    -519.412
  C      408.312    -562.614    -518.287
  C      409.459    -561.801    -517.958
  O      409.573    -561.068    -516.985
  N      407.095    -562.749    -517.661
  C      406.466    -563.658    -518.364
  N      407.213    -564.111    -519.420
  O      405.300    -570.053    -517.611
  O      405.754    -568.511    -515.617
  H      409.523    -565.960    -519.810
  H      405.691    -570.673    -516.952
  H      411.298    -561.387    -518.688
  H      405.462    -564.045    -518.159
  H      407.155    -564.950    -521.310
  H      407.661    -566.654    -518.797
  H      412.385    -562.273    -520.562
  H      406.921    -568.558    -520.061
  H      411.548    -563.414    -521.569
  H      404.802    -567.154    -521.324
  H      403.669    -566.981    -519.084
  H      404.263    -568.602    -519.456
  P      407.043    -569.096    -522.599
  C      405.488    -567.947    -524.348
  O      406.565    -568.834    -524.101
  O      405.760    -569.735    -521.890
  O      408.265    -569.934    -522.437
  H      405.809    -570.704    -521.903
  H      405.851    -567.097    -524.926
  H      405.033    -567.581    -523.416
  H      404.721    -568.482    -524.914
  H      401.745    -569.708    -516.100
  H      403.196    -569.972    -515.163
  H      403.039    -570.686    -516.751

 3  4  5  6  7  8  9  10  11  12  23  26  30  31 0
 6-311+G(2d,p)
 ****
 33  35  36  37  38 0
 6-311+G(2d,p)
 ****
 1  2  13  14  15  16  17  18  19  20  21  22  24  25 0
 3-21G
 ****
 27  28  29  32  34  39  40  41  42  43  44  45  46  47  48  49 0
 3-21G
 ****


