%nproc=1
%NoSave
%Mem=1900MB
#P OB98/GEN NMR

erre ene a

0 1
  C        8.741     774.524    -308.620
  O        7.747     773.727    -309.244
  H        9.713     774.345    -309.089
  H        8.474     775.581    -308.741
  H        8.793     774.293    -307.553
  P        7.940     772.137    -309.172
  C        5.623     771.426    -308.228
  O        7.006     771.640    -307.963
  C        4.824     771.618    -306.937
  O        5.232     772.837    -306.278
  C        3.322     771.739    -307.144
  O        2.693     770.477    -307.309
  C        2.905     772.398    -305.840
  O        2.888     771.416    -304.784
  C        4.057     773.394    -305.616
  N        2.250     778.069    -304.561
  C        2.365     776.954    -303.806
  N        2.849     775.749    -304.167
  C        3.249     775.753    -305.446
  C        3.182     776.812    -306.344
  C        2.660     778.025    -305.847
  N        2.525     779.162    -306.630
  N        3.650     776.425    -307.588
  C        4.014     775.175    -307.434
  N        3.787     774.718    -306.166
  O        9.423     771.966    -308.578
  O        7.748     771.401    -310.455
  H        2.275     770.708    -305.069
  H        9.764     771.077    -308.795
  H        2.015     777.040    -302.780
  H        4.457     774.557    -308.211
  H        4.306     773.521    -304.554
  H        1.915     772.848    -305.877
  H        3.078     772.421    -307.981
  H        5.060     770.777    -306.262
  H        5.476     770.408    -308.601
  H        1.973     779.908    -306.231
  H        2.681     779.086    -307.619
  H        5.295     772.143    -308.990
  P        2.153     770.103    -308.772
  C        3.101     767.680    -308.511
  O        3.075     768.891    -309.282
  O        2.630     771.334    -309.662
  O        0.677     769.872    -308.853
  H        2.051     771.445    -310.446
  H        3.756     766.974    -308.977
  H        2.114     767.270    -308.458
  H        3.452     767.894    -307.523

 6  7  8  9  10  11  12  13  14  15  25  28  32  33  34  35 0
 6-311+G(2d,p)
 ****
 36  39  40 0
 6-311+G(2d,p)
 ****
 1  2  3  4  5  16  17  18  19  20  21  22  23  24 0
 3-21G
 ****
 26  27  29  30  31  37  38  41  42  43  44  45  46  47 0
 3-21G
 ****
 48 0
 3-21G
 ****


