%nproc=1
%NoSave
%Mem=1900MB
#P OB98/GEN NMR

erre ene a

0 1
  C      101.894     210.334     120.960
  O      101.368     211.193     119.965
  H      101.965     210.888     121.903
  H      102.896     209.988     120.689
  H      101.235     209.474     121.107
  P      101.312     210.658     118.454
  C      103.104     210.108     116.666
  O      102.822     210.728     117.918
  C      104.611     210.057     116.435
  O      105.144     211.393     116.334
  C      105.371     209.390     117.574
  O      105.224     207.981     117.522
  C      106.774     209.911     117.326
  O      107.429     209.177     116.284
  C      106.489     211.366     116.883
  N      106.629     212.327     117.970
  C      107.938     212.656     118.336
  O      108.896     212.152     117.742
  N      108.127     213.538     119.372
  C      107.104     214.051     119.982
  N      107.365     214.913     121.005
  C      105.709     213.743     119.623
  C      105.545     212.880     118.619
  O      100.305     211.297     117.546
  O      101.060     209.085     118.620
  H      108.239     209.685     116.069
  H      100.102     208.893     118.641
  H      104.890     214.201     120.155
  H      104.550     212.595     118.290
  H      107.166     211.662     116.070
  H      107.390     209.839     118.221
  H      105.028     209.780     118.537
  H      104.800     209.544     115.478
  H      108.339     215.089     121.224
  H      102.620     210.711     115.889
  H      106.655     215.441     121.489
  H      102.682     209.096     116.632
  P      105.169     207.121     118.875
  C      106.577     207.175     121.034
  O      106.557     207.416     119.630
  O      104.834     205.675     118.691
  O      104.098     207.913     119.766
  H      103.174     207.766     119.441
  H      107.547     207.406     121.422
  H      106.353     206.146     121.222
  H      105.846     207.792     121.512

 6  7  8  9  10  11  12  13  14  15  16  26  30  31  32  33  35 0
 6-311+G(2d,p)
 ****
 37  38 0
 6-311+G(2d,p)
 ****
 1  2  3  4  5  17  18  19  20  21  22  23  24  25 0
 3-21G
 ****
 27  28  29  34  36  39  40  41  42  43  44  45  46 0
 3-21G
 ****


