%nproc=1
%NoSave
%Mem=1900MB
#P OB98/GEN NMR

erre ene a

0 1
  C      -37.730     950.690      29.358
  O      -36.542     949.914      29.482
  P      -35.971     949.147      28.209
  C      -34.030     950.684      27.435
  O      -34.402     949.443      28.082
  C      -32.678     951.174      27.954
  O      -32.684     951.431      29.347
  C      -31.540     950.158      27.722
  O      -31.184     950.109      26.363
  C      -30.478     950.692      28.669
  O      -29.732     951.769      28.066
  C      -31.339     951.242      29.853
  N      -31.334     950.360      31.022
  C      -30.081     950.117      31.593
  O      -29.049     950.591      31.076
  N      -30.002     949.315      32.683
  C      -31.093     948.807      33.206
  N      -30.972     948.007      34.305
  C      -32.436     949.018      32.622
  C      -32.492     949.789      31.553
  O      -36.742     949.360      26.932
  O      -35.995     947.607      28.648
  H      -29.020     951.972      28.691
  H      -36.134     947.056      27.876
  H      -33.314     948.586      33.081
  H      -33.414     950.019      31.075
  H      -30.971     952.211      30.166
  H      -29.775     949.893      28.952
  H      -31.882     949.148      28.046
  H      -32.438     952.115      27.419
  H      -30.021     947.879      34.692
  H      -34.798     951.448      27.635
  H      -31.758     947.615      34.805
  H      -34.022     950.540      26.342
  P      -31.084     948.656      25.676
  C      -31.453     949.281      23.171
  O      -30.528     948.872      24.175
  O      -32.632     948.277      25.448
  O      -30.362     947.623      26.459
  H      -32.718     947.297      25.535
  H      -30.874     949.697      22.316
  H      -32.125     950.052      23.540
  H      -32.038     948.414      22.829
  H      -37.968     951.132      30.303
  H      -38.537     950.060      29.046
  H      -37.578     951.461      28.632

 3  4  5  6  7  8  9  10  11  12  13  23  27  28  29  30  32 0
 6-311+G(2d,p)
 ****
 34  35 0
 6-311+G(2d,p)
 ****
 1  2  14  15  16  17  18  19  20  21  22  24  25  26 0
 3-21G
 ****
 31  33  36  37  38  39  40  41  42  43  44  45  46 0
 3-21G
 ****


