%nproc=1
%NoSave
%Mem=1900MB
#P OB98/GEN NMR

erre ene a

0 1
  C      126.486    -110.234      63.829
  O      126.983    -111.470      64.303
  H      127.188    -109.428      64.065
  H      126.373    -110.294      62.744
  H      125.510    -110.020      64.274
  P      127.192    -111.597      65.889
  C      129.761    -111.596      65.527
  O      128.654    -111.010      66.196
  C      130.503    -112.542      66.466
  O      131.625    -113.141      65.786
  C      131.083    -111.879      67.711
  O      130.096    -111.680      68.712
  C      132.105    -112.923      68.137
  O      131.442    -114.001      68.823
  C      132.645    -113.413      66.784
  N      137.579    -112.711      67.944
  C      136.623    -113.486      68.500
  N      135.337    -113.636      68.123
  C      135.073    -112.891      67.037
  C      135.948    -112.070      66.345
  C      137.258    -111.985      66.843
  N      138.211    -111.132      66.305
  N      135.307    -111.452      65.288
  C      134.064    -111.883      65.352
  N      133.876    -112.758      66.386
  O      127.361    -113.178      66.099
  O      126.085    -111.043      66.723
  H      132.113    -114.695      68.969
  H      126.504    -113.559      66.369
  H      136.930    -114.060      69.369
  H      133.271    -111.585      64.679
  H      132.822    -114.493      66.777
  H      132.867    -112.526      68.816
  H      131.603    -110.947      67.465
  H      129.813    -113.352      66.743
  H      130.446    -110.809      65.194
  H      138.900    -110.814      66.981
  H      137.838    -110.436      65.671
  H      129.394    -112.141      64.652
  P      130.103    -110.282      69.501
  C      132.012    -111.188      70.994
  O      131.564    -110.134      70.152
  O      129.155    -110.577      70.756
  O      129.620    -109.109      68.720
  H      128.427    -109.927      70.778
  H      132.993    -110.962      71.357
  H      132.039    -112.102      70.438
  H      131.341    -111.294      71.821

 6  7  8  9  10  11  12  13  14  15  25  28  32  33  34  35 0
 6-311+G(2d,p)
 ****
 36  39  40 0
 6-311+G(2d,p)
 ****
 1  2  3  4  5  16  17  18  19  20  21  22  23  24 0
 3-21G
 ****
 26  27  29  30  31  37  38  41  42  43  44  45  46  47  48 0
 3-21G
 ****


