%nproc=1
%NoSave
%Mem=1900MB
#P OB98/GEN NMR

erre ene a

0 1
  C      -17.015       6.624      42.583
  O      -16.914       5.798      41.437
  P      -15.616       5.831      40.490
  C      -14.801       3.390      40.231
  O      -15.620       4.426      39.717
  C      -14.800       2.192      39.279
  O      -16.073       1.504      39.397
  C      -14.607       2.558      37.802
  O      -13.850       1.503      37.199
  C      -16.026       2.571      37.269
  O      -16.082       2.400      35.860
  C      -16.649       1.429      38.078
  N      -18.104       1.511      38.135
  C      -18.830       0.878      37.125
  O      -18.258       0.293      36.207
  N      -20.201       0.922      37.176
  C      -20.792       1.610      38.103
  N      -22.152       1.572      38.144
  C      -20.061       2.382      39.124
  C      -18.737       2.269      39.093
  O      -14.341       6.155      41.187
  O      -16.004       6.851      39.325
  H      -17.012       2.241      35.608
  H      -15.827       7.795      39.564
  H      -20.600       2.963      39.859
  H      -18.120       2.780      39.818
  H      -16.349       0.462      37.659
  H      -16.498       3.530      37.511
  H      -14.077       3.506      37.668
  H      -14.020       1.493      39.605
  H      -22.608       0.897      37.540
  H      -15.210       3.073      41.195
  H      -22.654       1.798      38.996
  H      -13.786       3.766      40.393
  P      -13.148       1.785      35.782
  C      -10.830       1.216      36.797
  O      -11.754       0.998      35.753
  O      -12.668       3.308      35.957
  O      -14.019       1.664      34.575
  H      -12.598       3.721      35.076
  H       -9.948       0.596      36.617
  H      -11.263       0.933      37.759
  H      -10.522       2.265      36.822
  H      -17.952       6.447      43.069
  H      -16.954       7.651      42.289
  H      -16.216       6.398      43.257

 3  4  5  6  7  8  9  10  11  12  13  23  27  28  29  30  32 0
 6-311+G(2d,p)
 ****
 34  35 0
 6-311+G(2d,p)
 ****
 1  2  14  15  16  17  18  19  20  21  22  24  25  26 0
 3-21G
 ****
 31  33  36  37  38  39  40  41  42  43  44  45  46 0
 3-21G
 ****


