%nproc=1
%NoSave
%Mem=1900MB
#P OB98/GEN NMR

erre ene a

0 1
  C       12.939      41.653     -45.958
  O       13.643      40.702     -46.735
  H       13.059      41.400     -44.903
  H       11.876      41.628     -46.209
  H       13.344      42.652     -46.132
  P       13.611      40.913     -48.325
  C       16.038      41.782     -48.093
  O       14.732      42.026     -48.598
  C       17.090      42.125     -49.144
  O       16.898      43.463     -49.635
  C       18.525      42.072     -48.636
  O       19.005      40.738     -48.614
  C       19.231      42.908     -49.693
  O       19.461      42.110     -50.870
  C       18.196      44.005     -49.999
  N       17.898      49.118     -50.337
  C       17.781      48.148     -51.269
  N       17.914      46.814     -51.116
  C       18.198      46.506     -49.841
  C       18.348      47.387     -48.781
  C       18.175      48.752     -49.064
  N       18.285      49.737     -48.107
  N       18.639      46.707     -47.617
  C       18.613      45.435     -47.959
  N       18.387      45.262     -49.301
  O       12.268      41.165     -48.917
  O       14.333      39.573     -48.824
  H       19.797      41.242     -50.576
  H       15.066      39.337     -48.229
  H       17.547      48.490     -52.274
  H       18.735      44.604     -47.274
  H       18.163      44.245     -51.068
  H       20.205      43.267     -49.357
  H       18.625      42.566     -47.665
  H       16.950      41.444     -49.993
  H       16.140      40.734     -47.792
  H       18.316      50.693     -48.426
  H       18.613      49.473     -47.190
  H       16.170      42.411     -47.207
  P       20.278      40.343     -47.724
  C       18.931      39.107     -45.916
  O       19.758      40.227     -46.209
  O       21.470      41.217     -47.904
  O       20.588      38.826     -48.117
  H       21.552      38.673     -48.149
  H       18.647      39.134     -44.885
  H       19.470      38.204     -46.114
  H       18.054      39.141     -46.529

 6  7  8  9  10  11  12  13  14  15  25  28  32  33  34  35 0
 6-311+G(2d,p)
 ****
 36  39  40 0
 6-311+G(2d,p)
 ****
 1  2  3  4  5  16  17  18  19  20  21  22  23  24 0
 3-21G
 ****
 26  27  29  30  31  37  38  41  42  43  44  45  46  47 0
 3-21G
 ****
 48 0
 3-21G
 ****


