%nproc=1
%NoSave
%Mem=1900MB
#P OB98/GEN NMR

erre ene a

0 1
  C      -41.787      65.266     249.009
  O      -42.661      66.198     249.612
  P      -42.243      67.740     249.747
  C      -43.536      69.971     249.711
  O      -43.627      68.552     249.811
  C      -44.833      70.561     249.157
  O      -45.032      70.153     247.789
  C      -46.084      70.125     249.907
  O      -46.207      70.832     251.127
  C      -47.164      70.437     248.881
  O      -47.535      71.823     248.918
  C      -46.455      70.098     247.551
  N      -46.864      68.806     247.016
  C      -47.792      68.845     245.970
  O      -48.242      69.921     245.575
  N      -48.228      67.658     245.431
  C      -47.790      66.536     245.912
  N      -48.267      65.395     245.344
  C      -46.836      66.452     247.034
  C      -46.420      67.614     247.534
  O      -41.261      68.225     248.735
  O      -41.704      67.837     251.253
  H      -48.434      71.876     248.538
  H      -40.812      67.421     251.344
  H      -46.509      65.493     247.408
  H      -45.721      67.644     248.361
  H      -46.670      70.864     246.795
  H      -48.076      69.856     249.054
  H      -46.050      69.044     250.087
  H      -44.743      71.656     249.177
  H      -48.943      65.495     244.598
  H      -42.711      70.215     249.036
  H      -48.023      64.471     245.664
  H      -43.309      70.389     250.697
  P      -47.076      70.217     252.321
  C      -46.681      69.961     254.842
  O      -46.092      69.951     253.557
  O      -47.956      69.069     251.949
  O      -47.954      71.461     252.822
  H      -48.873      71.163     252.965
  H      -46.010      69.452     255.540
  H      -47.645      69.447     254.837
  H      -46.818      70.994     255.172
  H      -42.241      64.297     249.013
  H      -40.869      65.232     249.557
  H      -41.589      65.563     248.000

 3  4  5  6  7  8  9  10  11  12  13  23  27  28  29  30  32 0
 6-311+G(2d,p)
 ****
 34  35 0
 6-311+G(2d,p)
 ****
 1  2  14  15  16  17  18  19  20  21  22  24  25  26 0
 3-21G
 ****
 31  33  36  37  38  39  40  41  42  43  44  45  46 0
 3-21G
 ****


