%nproc=1
%NoSave
%Mem=1900MB
#P OB98/GEN NMR

erre ene a

0 1
  C      369.907    -273.777      89.326
  O      369.035    -274.826      89.676
  H      369.407    -273.136      88.594
  H      370.811    -274.190      88.870
  H      370.178    -273.172      90.194
  P      369.309    -275.632      91.031
  C      366.813    -276.121      91.480
  O      368.102    -276.672      91.247
  C      365.706    -277.149      91.264
  O      365.539    -277.396      89.851
  C      366.027    -278.501      91.909
  O      365.641    -278.607      93.270
  C      365.230    -279.468      91.036
  O      363.887    -279.626      91.516
  C      365.229    -278.788      89.665
  N      366.902    -279.183      84.847
  C      365.770    -278.544      85.321
  N      364.972    -277.980      84.392
  N      365.455    -278.494      86.593
  C      366.296    -279.187      87.391
  C      367.437    -279.874      87.030
  C      367.817    -279.864      85.636
  O      368.818    -280.396      85.168
  N      368.017    -280.496      88.116
  C      367.176    -280.257      89.104
  N      366.161    -279.399      88.732
  O      369.032    -274.545      92.178
  O      370.685    -276.211      91.172
  H      363.932    -279.980      92.430
  H      369.605    -274.725      92.946
  H      367.111    -279.163      83.865
  H      367.277    -280.636      90.120
  H      364.237    -278.830      89.194
  H      365.684    -280.464      91.041
  H      365.122    -278.064      83.397
  H      367.088    -278.740      91.804
  H      364.039    -277.671      84.681
  H      364.755    -276.746      91.631
  H      366.701    -275.292      90.777
  H      366.753    -275.705      92.491
  P      366.334    -279.667      94.247
  C      366.599    -277.806      96.080
  O      366.224    -279.124      95.741
  O      367.891    -279.496      93.903
  O      365.878    -281.079      94.091
  H      368.186    -280.196      93.288
  H      366.447    -277.650      97.128
  H      366.003    -277.112      95.526
  H      367.632    -277.657      95.844

 6  7  8  9  10  11  12  13  14  15  26  29  33  34 0
 6-311+G(2d,p)
 ****
 36  38  39  40  41 0
 6-311+G(2d,p)
 ****
 1  2  3  4  5  16  17  18  19  20  21  22  23  24  25 0
 3-21G
 ****
 27  28  30  31  32  35  37  42  43  44  45  46  47 0
 3-21G
 ****
 48  49 0
 3-21G
 ****


