%nproc=1
%NoSave
%Mem=1900MB
#P OB98/GEN NMR

erre ene a

0 1
  C      180.367    -288.869     149.658
  O      180.085    -290.065     148.956
  P      179.177    -291.183     149.689
  C      177.398    -290.851     147.797
  O      177.672    -290.901     149.194
  C      175.943    -290.411     147.553
  O      175.040    -291.492     147.940
  C      175.524    -289.140     148.310
  O      174.648    -288.403     147.426
  C      174.757    -289.700     149.492
  O      173.850    -288.728     150.035
  C      174.061    -290.901     148.839
  N      173.593    -291.886     149.809
  C      172.233    -291.864     150.111
  O      171.447    -291.023     149.654
  N      171.804    -292.823     150.995
  C      172.584    -293.720     151.661
  O      172.169    -294.561     152.440
  C      174.044    -293.619     151.390
  C      174.457    -292.713     150.500
  O      179.203    -290.632     151.188
  O      179.678    -292.571     149.487
  H      179.191    -289.660     151.261
  H      173.289    -288.374     149.303
  H      170.818    -292.849     151.196
  H      174.707    -294.253     151.947
  H      175.526    -292.584     150.298
  H      173.206    -290.584     148.231
  H      175.449    -290.019     150.285
  H      176.371    -288.527     148.599
  H      175.828    -290.245     146.469
  H      177.543    -291.841     147.338
  H      178.116    -290.156     147.323
  P      175.240    -287.118     146.677
  C      174.286    -287.648     144.289
  O      175.421    -287.491     145.129
  O      176.750    -287.127     147.231
  O      174.533    -285.834     146.982
  H      177.160    -287.999     147.183
  H      174.633    -287.655     143.249
  H      173.607    -286.805     144.416
  H      173.779    -288.577     144.520
  H      180.973    -288.232     149.048
  H      180.890    -289.101     150.562
  H      179.451    -288.370     149.894

 3  4  5  6  7  8  9  10  11  12  13  24  28  29  30  31  32 0
 6-311+G(2d,p)
 ****
 33  34 0
 6-311+G(2d,p)
 ****
 1  2  14  15  16  17  18  19  20  21  22  23  25  26  27 0
 3-21G
 ****
 35  36  37  38  39  40  41  42  43  44  45 0
 3-21G
 ****


