%nproc=1
%NoSave
%Mem=1900MB
#P OB98/GEN NMR

erre ene a

0 1
  C     -760.672     261.706    -561.171
  O     -762.087     261.811    -561.135
  H     -760.383     260.774    -560.682
  H     -760.230     262.551    -560.636
  H     -760.311     261.683    -562.202
  P     -762.806     262.899    -562.060
  C     -762.443     264.921    -560.497
  O     -762.120     264.312    -561.743
  C     -761.780     266.301    -560.379
  O     -762.148     267.100    -561.542
  C     -762.279     267.063    -559.144
  O     -761.296     267.971    -558.646
  C     -763.469     267.836    -559.671
  O     -763.785     268.985    -558.886
  C     -762.998     268.177    -561.090
  N     -766.106     271.475    -563.431
  C     -765.241     271.690    -562.374
  N     -765.192     272.946    -561.882
  N     -764.508     270.751    -561.842
  C     -764.699     269.534    -562.387
  C     -765.553     269.183    -563.412
  C     -766.337     270.239    -564.020
  O     -767.127     270.100    -564.956
  N     -765.492     267.835    -563.685
  C     -764.621     267.373    -562.828
  N     -764.091     268.358    -562.029
  O     -764.264     263.057    -561.395
  O     -762.901     262.545    -563.517
  H     -763.937     268.704    -557.978
  H     -764.892     263.406    -562.049
  H     -766.623     272.237    -563.822
  H     -764.314     266.324    -562.739
  H     -762.400     269.100    -561.089
  H     -764.335     267.185    -559.652
  H     -765.888     273.649    -562.130
  H     -762.573     266.391    -558.339
  H     -764.810     273.053    -560.929
  H     -760.687     266.201    -560.398
  H     -762.087     264.256    -559.717
  H     -763.525     265.000    -560.379
  P     -760.344     267.507    -557.456
  C     -761.038     269.108    -555.467
  O     -761.021     267.822    -556.049
  O     -759.113     268.541    -557.517
  O     -759.872     266.080    -557.563
  H     -758.288     268.076    -557.754
  H     -761.547     269.067    -554.527
  H     -761.546     269.788    -556.119
  H     -760.034     269.444    -555.314

 6  7  8  9  10  11  12  13  14  15  26  29  33  34 0
 6-311+G(2d,p)
 ****
 36  38  39  40  41 0
 6-311+G(2d,p)
 ****
 1  2  3  4  5  16  17  18  19  20  21  22  23  24  25 0
 3-21G
 ****
 27  28  30  31  32  35  37  42  43  44  45  46  47 0
 3-21G
 ****
 48  49 0
 3-21G
 ****


