%nproc=1
%NoSave
%Mem=1900MB
#P OB98/GEN NMR

erre ene a

0 1
  C       42.355     358.335     265.061
  O       42.364     357.633     263.833
  H       41.937     359.331     264.894
  H       43.372     358.440     265.448
  H       41.734     357.809     265.792
  P       43.044     356.175     263.852
  C       40.851     354.882     264.435
  O       42.119     355.347     264.872
  C       40.449     353.650     265.233
  O       39.091     353.264     264.925
  C       41.299     352.416     264.947
  O       42.553     352.442     265.607
  C       40.393     351.330     265.496
  O       40.459     351.325     266.933
  C       39.009     351.813     265.005
  N       38.627     351.248     263.710
  C       38.077     349.961     263.727
  O       37.944     349.346     264.785
  N       37.723     349.378     262.533
  C       37.891     350.024     261.422
  N       37.536     349.396     260.269
  C       38.449     351.388     261.359
  C       38.793     351.931     262.527
  O       44.384     356.395     264.697
  O       43.250     355.534     262.522
  H       41.309     350.913     267.179
  H       44.816     355.524     264.872
  H       38.577     351.884     260.410
  H       39.208     352.935     262.560
  H       38.228     351.572     265.739
  H       40.675     350.329     265.158
  H       41.425     352.255     263.870
  H       40.477     353.915     266.301
  H       37.214     348.438     260.336
  H       40.922     354.637     263.369
  H       37.797     349.744     259.355
  H       40.099     355.667     264.572
  P       43.515     351.170     265.427
  C       45.026     352.289     263.631
  O       44.112     351.244     263.937
  O       42.488     349.948     265.351
  O       44.531     350.984     266.514
  H       42.838     349.165     265.819
  H       45.333     352.207     262.609
  H       45.882     352.212     264.268
  H       44.551     353.235     263.785

 6  7  8  9  10  11  12  13  14  15  16  26  30  31  32  33  35 0
 6-311+G(2d,p)
 ****
 37  38 0
 6-311+G(2d,p)
 ****
 1  2  3  4  5  17  18  19  20  21  22  23  24  25 0
 3-21G
 ****
 27  28  29  34  36  39  40  41  42  43  44  45  46 0
 3-21G
 ****


