%nproc=1
%NoSave
%Mem=1900MB
#P OB98/GEN NMR

erre ene a

0 1
  C      -84.241    -893.030      78.573
  O      -83.211    -892.890      77.618
  H      -83.842    -892.740      79.553
  H      -84.592    -894.060      78.627
  H      -85.075    -892.360      78.327
  P      -83.462    -893.490      76.146
  C      -83.257    -895.920      77.007
  O      -82.727    -894.920      76.141
  C      -82.872    -897.330      76.534
  O      -83.534    -897.630      75.287
  C      -81.388    -897.490      76.248
  O      -80.576    -897.460      77.396
  C      -81.363    -898.720      75.338
  O      -81.336    -899.940      76.052
  C      -82.706    -898.580      74.582
  N      -82.515    -898.200      73.181
  C      -81.468    -898.850      72.530
  O      -80.724    -899.670      73.066
  N      -81.272    -898.480      71.220
  C      -81.969    -897.530      70.549
  O      -81.716    -897.210      69.389
  C      -83.045    -896.850      71.307
  C      -83.261    -897.220      72.574
  O      -83.071    -892.610      75.002
  O      -85.013    -893.880      76.154
  H      -82.190    -900.000      76.551
  H      -85.351    -894.020      75.242
  H      -80.535    -898.960      70.720
  H      -83.612    -896.080      70.809
  H      -84.046    -896.740      73.159
  H      -83.250    -899.540      74.608
  H      -80.488    -898.700      74.678
  H      -81.067    -896.640      75.621
  H      -83.209    -898.060      77.281
  H      -84.348    -895.820      76.995
  H      -82.899    -895.750      78.029
  P      -79.365    -896.420      77.583
  C      -77.598    -898.110      76.694
  O      -77.998    -897.270      77.763
  O      -79.614    -895.260      78.493
  O      -79.207    -895.840      76.091
  H      -78.940    -894.910      76.164
  H      -76.685    -898.605      76.952
  H      -77.448    -897.520      75.814
  H      -78.359    -898.839      76.509

 6  7  8  9  10  11  12  13  14  15  16  26  31  32  33  34  35 0
 6-311+G(2d,p)
 ****
 36  37 0
 6-311+G(2d,p)
 ****
 1  2  3  4  5  17  18  19  20  21  22  23  24  25 0
 3-21G
 ****
 27  28  29  30  38  39  40  41  42  43  44  45 0
 3-21G
 ****


