%nproc=1
%NoSave
%Mem=1900MB
#P OB98/GEN NMR

erre ene a

0 1
  C      114.800     114.963      10.786
  O      115.384     114.277       9.698
  H      115.583     115.191      11.514
  H      114.047     114.335      11.269
  H      114.346     115.900      10.456
  P      114.478     113.938       8.420
  C      114.295     116.371       7.592
  O      113.601     115.246       8.114
  C      113.425     117.086       6.562
  O      114.161     118.167       5.949
  C      112.968     116.192       5.415
  O      111.927     115.331       5.830
  C      112.573     117.240       4.387
  O      111.277     117.786       4.678
  C      113.670     118.310       4.596
  N      114.761     118.203       3.625
  C      114.723     119.096       2.561
  O      113.838     119.935       2.415
  N      115.724     118.962       1.635
  C      116.677     117.984       1.628
  O      117.414     117.768       0.671
  C      116.711     117.118       2.815
  C      115.757     117.254       3.737
  O      113.708     112.663       8.492
  O      115.528     113.922       7.210
  H      115.748     112.998       6.987
  H      111.155     118.546       4.076
  H      115.679     119.574       0.834
  H      117.493     116.371       2.878
  H      115.746     116.605       4.607
  H      113.243     119.318       4.518
  H      112.529     116.835       3.374
  H      113.816     115.617       5.025
  H      112.562     117.518       7.085
  H      115.215     116.021       7.112
  H      114.557     117.044       8.415
  P      111.290     114.259       4.830
  C      112.694     112.344       5.792
  O      112.353     113.078       4.624
  O      110.740     114.824       3.562
  O      110.134     113.556       5.689
  H      109.295     113.600       5.191
  H      113.406     111.585       5.541
  H      111.814     111.888       6.196
  H      113.118     113.006       6.518

 6  7  8  9  10  11  12  13  14  15  16  27  31  32  33  34  35 0
 6-311+G(2d,p)
 ****
 36  37 0
 6-311+G(2d,p)
 ****
 1  2  3  4  5  17  18  19  20  21  22  23  24  25 0
 3-21G
 ****
 26  28  29  30  38  39  40  41  42  43  44  45 0
 3-21G
 ****


