%nproc=1
%NoSave
%Mem=1900MB
#P OB98/GEN NMR

erre ene a

0 1
  C     1468.263     323.604     690.215
  O     1467.144     323.205     689.447
  H     1469.176     323.294     689.690
  H     1468.229     323.100     691.182
  H     1468.291     324.682     690.360
  P     1465.723     323.905     689.731
  C     1466.111     325.792     688.019
  O     1465.866     325.470     689.384
  C     1464.869     326.360     687.332
  O     1464.412     327.534     688.048
  C     1465.142     326.796     685.894
  O     1465.015     325.765     684.926
  C     1464.070     327.874     685.677
  O     1462.836     327.311     685.196
  C     1463.886     328.451     687.078
  N     1464.005     333.453     685.876
  C     1463.234     332.424     685.316
  N     1462.421     332.795     684.294
  N     1463.279     331.187     685.732
  C     1464.208     330.961     686.696
  C     1465.027     331.885     687.298
  C     1464.929     333.258     686.895
  O     1465.563     334.204     687.367
  N     1465.887     331.271     688.219
  C     1465.621     330.002     688.085
  N     1464.557     329.755     687.243
  O     1465.640     323.921     691.337
  O     1464.534     323.211     689.145
  H     1462.203     328.039     685.066
  H     1464.699     323.853     691.617
  H     1463.918     334.369     685.547
  H     1466.118     329.192     688.615
  H     1462.829     328.618     687.328
  H     1464.400     328.593     684.928
  H     1462.419     333.702     683.887
  H     1466.135     327.263     685.805
  H     1461.998     332.039     683.749
  H     1464.066     325.615     687.377
  H     1466.429     324.875     687.525
  H     1466.950     326.505     687.952
  P     1465.953     325.705     683.651
  C     1467.008     323.296     683.816
  O     1467.151     324.693     683.948
  O     1466.668     327.126     683.659
  O     1465.278     325.417     682.341
  H     1466.239     327.743     683.024
  H     1467.932     322.818     684.064
  H     1466.743     323.058     682.807
  H     1466.240     322.952     684.477

 6  7  8  9  10  11  12  13  14  15  26  29  33  34 0
 6-311+G(2d,p)
 ****
 36  38  39  40  41 0
 6-311+G(2d,p)
 ****
 1  2  3  4  5  16  17  18  19  20  21  22  23  24  25 0
 3-21G
 ****
 27  28  30  31  32  35  37  42  43  44  45  46  47 0
 3-21G
 ****
 48  49 0
 3-21G
 ****


