%nproc=1
%NoSave
%Mem=1900MB
#P OB98/GEN NMR

erre ene a

0 1
  C      447.163     838.456     355.206
  O      446.840     837.159     354.740
  P      445.538     836.449     355.347
  C      446.838     834.223     355.795
  O      446.049     835.290     356.332
  C      447.603     833.545     356.915
  O      448.574     834.437     357.497
  C      446.720     833.089     358.075
  O      446.043     831.870     357.775
  C      447.738     832.943     359.195
  O      448.408     831.669     359.137
  C      448.714     834.092     358.884
  N      448.548     835.239     359.769
  C      449.565     835.477     360.683
  O      450.577     834.759     360.766
  N      449.389     836.546     361.520
  C      448.298     837.349     361.575
  O      448.172     838.267     362.391
  C      447.230     837.035     360.605
  C      447.401     836.008     359.778
  O      444.926     835.659     354.111
  O      444.554     837.387     355.950
  H      448.962     831.609     359.940
  H      443.944     835.665     354.151
  H      450.140     836.744     362.158
  H      446.341     837.661     360.625
  H      446.617     835.757     359.060
  H      449.766     833.737     358.993
  H      447.273     833.008     360.185
  H      446.007     833.880     358.335
  H      448.165     832.684     356.488
  H      447.534     834.620     355.054
  H      446.176     833.518     355.294
  P      444.765     831.511     358.665
  C      446.238     829.759     359.939
  O      445.361     830.886     360.014
  O      444.168     830.270     357.852
  O      443.830     832.665     358.832
  H      444.863     829.761     357.415
  H      446.882     829.811     359.054
  H      445.647     828.843     359.901
  H      446.873     829.754     360.836
  H      448.050     838.800     354.716
  H      447.329     838.424     356.263
  H      446.355     839.124     354.992

 3  4  5  6  7  8  9  10  11  12  13  23  28  29  30  31  32 0
 6-311+G(2d,p)
 ****
 33  34 0
 6-311+G(2d,p)
 ****
 1  2  14  15  16  17  18  19  20  21  22  24  25  26 0
 3-21G
 ****
 27  35  36  37  38  39  40  41  42  43  44  45 0
 3-21G
 ****


