%nproc=1
%NoSave
%Mem=1900MB
#P OB98/GEN NMR

erre ene a

0 1
  C      -76.683    -344.056     -32.713
  O      -76.195    -345.048     -33.600
  P      -77.185    -346.111     -34.266
  C      -75.283    -347.920     -34.204
  O      -76.630    -347.576     -33.963
  C      -74.948    -349.194     -33.416
  O      -74.866    -348.901     -32.008
  C      -76.012    -350.271     -33.613
  O      -75.639    -351.160     -34.653
  C      -76.074    -350.929     -32.248
  O      -75.009    -351.886     -32.102
  C      -75.842    -349.720     -31.310
  N      -76.998    -348.869     -30.974
  C      -76.933    -348.023     -29.871
  O      -75.944    -347.910     -29.155
  N      -78.077    -347.312     -29.598
  C      -79.225    -347.338     -30.334
  O      -80.302    -346.897     -29.951
  C      -79.136    -348.031     -31.621
  C      -78.055    -348.771     -31.868
  O      -76.912    -345.929     -35.831
  O      -78.629    -345.945     -33.926
  H      -74.175    -351.419     -32.290
  H      -77.595    -345.363     -36.237
  H      -78.082    -346.802     -28.720
  H      -79.974    -347.961     -32.302
  H      -77.985    -349.325     -32.801
  H      -75.391    -350.040     -30.364
  H      -77.001    -351.484     -32.120
  H      -76.986    -349.809     -33.824
  H      -73.967    -349.564     -33.742
  H      -74.626    -347.099     -33.899
  H      -75.123    -348.084     -35.274
  P      -76.771    -351.888     -35.516
  C      -74.900    -353.365     -36.457
  O      -76.178    -353.338     -35.854
  O      -77.285    -351.117     -36.686
  O      -77.924    -352.176     -34.440
  H      -78.612    -351.481     -34.497
  H      -74.536    -354.396     -36.469
  H      -74.196    -352.745     -35.894
  H      -74.972    -353.003     -37.487
  H      -75.870    -343.447     -32.377
  H      -77.147    -344.527     -31.872
  H      -77.400    -343.446     -33.220

 3  4  5  6  7  8  9  10  11  12  13  23  28  29  30  31  32 0
 6-311+G(2d,p)
 ****
 33  34 0
 6-311+G(2d,p)
 ****
 1  2  14  15  16  17  18  19  20  21  22  24  25  26  27 0
 3-21G
 ****
 35  36  37  38  39  40  41  42  43  44  45 0
 3-21G
 ****


