%nproc=1
%NoSave
%Mem=1900MB
#P OB98/GEN NMR

erre ene a

0 1
  C       88.918     180.652     217.371
  O       90.124     180.669     216.598
  P       91.294     179.641     216.992
  C       93.385     181.212     216.549
  O       92.647     180.044     216.238
  C       94.676     181.227     215.710
  O       95.331     179.941     215.762
  C       94.440     181.529     214.229
  O       94.402     182.924     213.971
  C       95.600     180.816     213.564
  O       96.808     181.589     213.695
  C       95.682     179.524     214.415
  N       94.817     178.380     214.029
  C       94.978     177.783     212.786
  O       95.791     178.143     211.939
  N       94.148     176.721     212.516
  C       93.322     176.089     213.415
  O       92.651     175.102     213.138
  C       93.316     176.671     214.765
  C       94.033     177.767     215.001
  O       90.863     178.275     216.280
  O       91.498     179.469     218.469
  H       97.509     181.095     213.220
  H       90.672     177.586     216.956
  H       94.194     176.314     211.596
  H       92.710     176.181     215.518
  H       94.024     178.200     216.003
  H       96.716     179.146     214.448
  H       95.428     180.692     212.485
  H       93.511     181.049     213.893
  H       95.363     181.978     216.129
  H       93.634     181.246     217.607
  H       92.784     182.096     216.328
  P       93.010     183.654     213.683
  C       93.590     185.416     211.898
  O       93.382     185.172     213.273
  O       91.950     183.504     214.731
  O       92.542     183.019     212.269
  H       91.918     182.275     212.406
  H       93.696     186.494     211.755
  H       92.755     185.034     211.312
  H       94.520     184.937     211.570
  H       88.240     181.387     216.990
  H       89.146     180.873     218.393
  H       88.467     179.684     217.307

 3  4  5  6  7  8  9  10  11  12  13  23  28  29  30  31  32 0
 6-311+G(2d,p)
 ****
 33  34 0
 6-311+G(2d,p)
 ****
 1  2  14  15  16  17  18  19  20  21  22  24  25  26  27 0
 3-21G
 ****
 35  36  37  38  39  40  41  42  43  44  45 0
 3-21G
 ****


