%nproc=1
%NoSave
%Mem=1900MB
#P OB98/GEN NMR

erre ene a

0 1
  C     -350.836     217.656     345.971
  O     -351.580     218.832     345.641
  P     -350.942     219.901     344.633
  C     -352.747     219.742     342.796
  O     -352.113     220.570     343.760
  C     -353.629     220.566     341.849
  O     -354.770     221.114     342.582
  C     -352.886     221.753     341.205
  O     -353.030     221.801     339.783
  C     -353.401     222.963     341.964
  O     -353.272     224.169     341.236
  C     -354.824     222.533     342.353
  N     -355.323     223.274     343.526
  C     -356.038     224.431     343.274
  O     -356.203     224.901     342.148
  N     -356.514     225.090     344.372
  C     -356.283     224.747     345.678
  O     -356.686     225.400     346.629
  C     -355.455     223.540     345.882
  C     -355.027     222.870     344.807
  O     -349.766     219.431     343.840
  O     -350.513     221.109     345.610
  H     -353.387     224.924     341.855
  H     -349.665     221.467     345.289
  H     -357.056     225.931     344.213
  H     -355.233     223.254     346.900
  H     -354.413     221.984     344.931
  H     -355.527     222.726     341.540
  H     -352.807     223.075     342.880
  H     -351.799     221.663     341.356
  H     -354.015     219.894     341.077
  H     -353.373     218.999     343.300
  H     -351.990     219.179     342.246
  P     -351.851     221.559     338.740
  C     -352.962     219.697     337.318
  O     -352.479     221.030     337.370
  O     -350.683     220.759     339.246
  O     -351.381     223.040     338.374
  H     -350.407     223.070     338.309
  H     -353.006     219.371     336.282
  H     -353.975     219.660     337.745
  H     -352.307     219.007     337.882
  H     -351.403     217.054     346.650
  H     -349.911     217.936     346.430
  H     -350.638     217.098     345.080

 3  4  5  6  7  8  9  10  11  12  13  23  28  29  30  31  32 0
 6-311+G(2d,p)
 ****
 33  34 0
 6-311+G(2d,p)
 ****
 1  2  14  15  16  17  18  19  20  21  22  24  25  26  27 0
 3-21G
 ****
 35  36  37  38  39  40  41  42  43  44  45 0
 3-21G
 ****


