%nproc=1
%NoSave
%Mem=1900MB
#P OB98/GEN NMR

erre ene a

0 1
  C       -2.845     -25.756      -6.972
  O       -2.511     -24.457      -6.516
  P       -1.746     -24.310      -5.118
  C        0.618     -23.920      -6.127
  O       -0.222     -24.756      -5.348
  C        1.845     -23.495      -5.317
  O        2.700     -24.656      -5.091
  C        2.704     -22.421      -6.000
  O        3.256     -21.589      -4.970
  C        3.808     -23.242      -6.638
  O        4.963     -22.479      -6.952
  C        4.020     -24.300      -5.550
  N        4.758     -25.468      -6.028
  C        6.146     -25.396      -6.012
  O        6.781     -24.416      -5.623
  N        6.805     -26.482      -6.523
  C        6.228     -27.566      -7.117
  O        6.877     -28.451      -7.661
  C        4.757     -27.587      -7.106
  C        4.100     -26.555      -6.571
  O       -2.360     -25.497      -4.238
  O       -1.906     -22.983      -4.456
  H        5.131     -21.879      -6.203
  H       -3.040     -25.153      -3.629
  H        7.812     -26.452      -6.509
  H        4.266     -28.443      -7.550
  H        3.016     -26.535      -6.567
  H        4.548     -23.861      -4.694
  H        3.438     -23.691      -7.566
  H        2.153     -21.815      -6.726
  H        1.509     -23.145      -4.333
  H        0.061     -23.031      -6.426
  H        0.921     -24.448      -7.037
  P        3.423     -20.022      -5.280
  C        1.152     -19.141      -4.334
  O        1.948     -19.429      -5.463
  O        4.007     -20.073      -6.771
  O        4.313     -19.310      -4.314
  H        3.550     -20.723      -7.329
  H        1.757     -18.790      -3.494
  H        0.608     -20.040      -4.036
  H        0.431     -18.364      -4.598
  H       -3.349     -25.685      -7.913
  H       -3.487     -26.230      -6.259
  H       -1.952     -26.334      -7.088

 3  4  5  6  7  8  9  10  11  12  13  23  28  29  30  31  32 0
 6-311+G(2d,p)
 ****
 33  34 0
 6-311+G(2d,p)
 ****
 1  2  14  15  16  17  18  19  20  21  22  24  25  26 0
 3-21G
 ****
 27  35  36  37  38  39  40  41  42  43  44  45 0
 3-21G
 ****


