%nproc=1
%NoSave
%Mem=1900MB
#P OB98/GEN NMR

erre ene a

0 1
  C     -676.602    -304.945     156.208
  O     -675.239    -305.006     156.587
  H     -676.914    -305.908     155.787
  H     -677.204    -304.734     157.092
  H     -676.756    -304.149     155.470
  P     -674.186    -305.332     155.416
  C     -672.743    -307.372     154.744
  O     -673.800    -306.888     155.557
  C     -672.778    -308.903     154.705
  O     -672.625    -309.388     156.063
  C     -674.081    -309.490     154.127
  O     -673.788    -310.469     153.118
  C     -674.726    -310.192     155.311
  O     -675.433    -311.369     154.942
  C     -673.533    -310.493     156.213
  N     -675.682    -313.699     159.549
  C     -675.088    -313.918     158.365
  N     -674.448    -313.034     157.569
  C     -674.430    -311.807     158.131
  C     -674.978    -311.436     159.349
  C     -675.649    -312.443     160.071
  N     -676.304    -312.211     161.259
  N     -674.767    -310.092     159.589
  C     -674.145    -309.650     158.506
  N     -673.934    -310.651     157.598
  O     -672.860    -304.566     155.894
  O     -674.620    -304.890     154.057
  H     -674.783    -311.984     154.544
  H     -672.627    -303.892     155.221
  H     -675.133    -314.939     157.994
  H     -673.866    -308.620     158.327
  H     -673.008    -311.405     155.901
  H     -675.425    -309.501     155.800
  H     -674.737    -308.722     153.712
  H     -671.912    -309.255     154.129
  H     -671.784    -307.050     155.156
  H     -676.862    -312.955     161.642
  H     -676.375    -311.252     161.590
  H     -672.849    -306.964     153.735
  P     -674.567    -310.295     151.718
  C     -676.659    -311.388     150.604
  O     -675.654    -311.486     151.610
  O     -673.456    -310.686     150.635
  O     -675.106    -308.922     151.496
  H     -673.345    -309.956     150.005
  H     -677.300    -312.243     150.656
  H     -676.196    -311.347     149.640
  H     -677.235    -310.500     150.761

 6  7  8  9  10  11  12  13  14  15  25  28  32  33  34  35 0
 6-311+G(2d,p)
 ****
 36  39  40 0
 6-311+G(2d,p)
 ****
 1  2  3  4  5  16  17  18  19  20  21  22  23  24 0
 3-21G
 ****
 26  27  29  30  31  37  38  41  42  43  44  45  46  47  48 0
 3-21G
 ****


