%nproc=1
%NoSave
%Mem=1900MB
#P OB98/GEN NMR

erre ene a

0 1
  C      174.778       3.027    -181.951
  O      174.855       3.837    -183.107
  H      175.789       2.714    -181.675
  H      174.173       2.136    -182.137
  H      174.351       3.598    -181.121
  P      173.485       4.211    -183.859
  C      171.587       2.864    -184.979
  O      172.850       2.808    -184.318
  C      171.418       1.684    -185.939
  O      172.483       1.677    -186.911
  C      171.493       0.325    -185.258
  O      170.394       0.037    -184.421
  C      171.818      -0.605    -186.418
  O      170.666      -1.053    -187.125
  C      172.669       0.311    -187.332
  N      174.076      -0.072    -187.333
  C      174.468      -0.936    -188.348
  O      173.694      -1.385    -189.195
  N      175.784      -1.310    -188.340
  C      176.708      -0.951    -187.404
  O      177.866      -1.354    -187.429
  C      176.230      -0.056    -186.339
  C      174.954       0.338    -186.351
  O      173.605       5.213    -184.969
  O      172.517       4.677    -182.675
  H      170.097      -1.519    -186.482
  H      171.742       5.179    -183.026
  H      176.087      -1.928    -189.076
  H      176.937       0.247    -185.578
  H      174.576       0.998    -185.575
  H      172.306       0.255    -188.368
  H      172.352      -1.495    -186.080
  H      172.376       0.321    -184.606
  H      170.470       1.807    -186.474
  H      171.553       3.799    -185.548
  H      170.783       2.872    -184.236
  P      170.548      -0.551    -182.943
  C      171.697      -2.618    -181.868
  O      171.173      -2.029    -183.054
  O      169.405      -0.326    -182.007
  O      171.800       0.306    -182.390
  H      171.656       0.451    -181.435
  H      172.076      -3.593    -182.092
  H      170.921      -2.696    -181.136
  H      172.488      -2.007    -181.486

 6  7  8  9  10  11  12  13  14  15  16  26  31  32  33  34  35 0
 6-311+G(2d,p)
 ****
 36  37 0
 6-311+G(2d,p)
 ****
 1  2  3  4  5  17  18  19  20  21  22  23  24  25 0
 3-21G
 ****
 27  28  29  30  38  39  40  41  42  43  44  45 0
 3-21G
 ****


