%nproc=1
%NoSave
%Mem=1900MB
#P OB98/GEN NMR

erre ene a

0 1
  C      -22.512    -779.845    -249.403
  O      -22.940    -781.176    -249.657
  P      -24.403    -781.379    -250.290
  C      -26.812    -780.782    -249.523
  O      -25.416    -780.701    -249.247
  C      -27.578    -781.238    -248.278
  O      -27.505    -780.232    -247.255
  C      -29.060    -781.477    -248.511
  O      -29.317    -782.758    -249.076
  C      -29.588    -781.420    -247.087
  O      -29.328    -782.662    -246.411
  C      -28.731    -780.303    -246.476
  N      -32.118    -777.295    -244.114
  C      -31.743    -778.564    -243.887
  N      -30.839    -779.301    -244.571
  C      -30.337    -778.601    -245.605
  C      -30.663    -777.305    -245.977
  C      -31.591    -776.633    -245.177
  N      -31.961    -775.323    -245.387
  N      -29.948    -776.930    -247.099
  C      -29.194    -777.977    -247.383
  N      -29.388    -779.006    -246.502
  O      -24.665    -782.947    -250.093
  O      -24.544    -780.956    -251.710
  H      -29.795    -783.359    -246.908
  H      -25.329    -783.258    -250.739
  H      -32.219    -779.051    -243.041
  H      -28.496    -778.027    -248.209
  H      -28.448    -780.505    -245.444
  H      -30.667    -781.247    -247.035
  H      -29.513    -780.676    -249.101
  H      -27.091    -782.150    -247.907
  H      -26.974    -781.503    -250.331
  H      -32.488    -774.862    -244.665
  H      -31.420    -774.780    -246.052
  H      -27.166    -779.797    -249.851
  P      -30.551    -782.865    -250.103
  C      -33.104    -783.086    -249.649
  O      -31.844    -782.559    -249.224
  O      -30.641    -784.432    -250.394
  O      -30.379    -782.057    -251.346
  H      -31.052    -784.593    -251.267
  H      -33.797    -783.055    -248.803
  H      -32.996    -784.126    -249.980
  H      -33.500    -782.480    -250.461
  H      -21.527    -779.861    -248.985
  H      -23.185    -779.380    -248.713
  H      -22.502    -779.293    -250.319

 3  4  5  6  7  8  9  10  11  12  22  25  29  30  31  32 0
 6-311+G(2d,p)
 ****
 33  36  37 0
 6-311+G(2d,p)
 ****
 1  2  13  14  15  16  17  18  19  20  21  23  24  26 0
 3-21G
 ****
 27  28  34  35  38  39  40  41  42  43  44  45  46  47  48 0
 3-21G
 ****


