%nproc=1
%NoSave
%Mem=1900MB
#P OB98/GEN NMR

erre ene a

0 1
  C       88.511     -79.963     278.647
  O       88.190     -79.267     277.461
  H       87.953     -79.521     279.476
  H       89.579     -79.886     278.866
  H       88.225     -81.015     278.556
  P       88.994     -79.611     276.120
  C       91.095     -78.147     276.400
  O       90.553     -79.459     276.473
  C       92.576     -78.150     276.785
  O       93.317     -78.866     275.761
  C       93.178     -76.746     276.916
  O       94.111     -76.757     277.999
  C       93.896     -76.569     275.595
  O       94.935     -75.613     275.692
  C       94.357     -77.995     275.278
  N       94.595     -78.168     273.845
  C       95.582     -77.359     273.273
  O       96.212     -76.562     273.972
  N       95.789     -77.419     271.921
  C       95.039     -78.180     271.188
  N       95.272     -78.163     269.848
  C       93.965     -79.030     271.741
  C       93.802     -78.977     273.064
  O       88.560     -78.890     274.888
  O       88.809     -81.195     275.967
  H       95.568     -75.889     276.388
  H       88.018     -81.389     275.430
  H       93.364     -79.641     271.088
  H       93.032     -79.559     273.557
  H       95.280     -78.238     275.819
  H       93.187     -76.222     274.833
  H       92.424     -75.970     277.079
  H       92.692     -78.717     277.716
  H       96.000     -77.545     269.511
  H       90.535     -77.514     277.097
  H       94.726     -78.678     269.174
  H       90.971     -77.750     275.387
  P       93.621     -76.492     279.503
  C       94.460     -74.124     279.991
  O       93.322     -74.924     279.688
  O       94.494     -77.087     280.560
  O       92.158     -77.152     279.550
  H       91.977     -77.469     280.455
  H       94.160     -73.102     280.095
  H       95.175     -74.207     279.200
  H       94.900     -74.461     280.906

 6  7  8  9  10  11  12  13  14  15  16  26  30  31  32  33  35 0
 6-311+G(2d,p)
 ****
 37  38 0
 6-311+G(2d,p)
 ****
 1  2  3  4  5  17  18  19  20  21  22  23  24  25 0
 3-21G
 ****
 27  28  29  34  36  39  40  41  42  43  44  45  46 0
 3-21G
 ****


