%nproc=1
%NoSave
%Mem=1900MB
#P OB98/GEN NMR

erre ene a

0 1
  C     -163.128    -597.438     733.641
  O     -162.438    -597.132     734.813
  P     -163.052    -597.330     736.272
  C     -163.149    -594.867     737.100
  O     -162.525    -596.128     737.231
  C     -163.411    -594.163     738.455
  O     -164.248    -595.020     739.281
  C     -162.074    -594.008     739.215
  O     -161.222    -592.923     738.932
  C     -162.443    -594.180     740.671
  O     -162.601    -592.932     741.358
  C     -163.769    -594.940     740.618
  N     -163.491    -597.831     744.801
  C     -163.845    -596.516     744.688
  N     -163.969    -595.841     745.867
  N     -164.073    -595.903     743.542
  C     -163.800    -596.680     742.447
  C     -163.471    -598.028     742.450
  C     -163.270    -598.697     743.711
  O     -162.887    -599.853     743.859
  N     -163.209    -598.481     741.165
  C     -163.385    -597.426     740.424
  N     -163.703    -596.300     741.153
  O     -163.068    -598.727     736.826
  O     -164.589    -596.886     736.030
  H     -161.728    -592.487     741.363
  H     -165.163    -597.445     736.603
  H     -163.270    -598.223     745.704
  H     -163.234    -597.392     739.357
  H     -164.529    -594.410     741.211
  H     -161.638    -594.730     741.225
  H     -163.677    -596.221     746.729
  H     -161.462    -594.889     738.955
  H     -164.045    -594.823     745.794
  H     -163.959    -593.229     738.325
  H     -164.096    -595.018     736.570
  H     -162.541    -594.201     736.460
  P     -159.883    -592.947     738.051
  C     -158.146    -594.239     739.429
  O     -158.624    -592.969     739.057
  O     -159.789    -591.494     737.421
  O     -159.865    -594.005     736.990
  H     -159.223    -591.535     736.601
  H     -157.520    -594.163     740.316
  H     -157.543    -594.669     738.626
  H     -158.985    -594.913     739.637
  H     -162.509    -597.220     732.796
  H     -164.022    -596.852     733.590
  H     -163.383    -598.477     733.638

 3  4  5  6  7  8  9  10  11  12  23  26  30  31 0
 6-311+G(2d,p)
 ****
 33  35  36  37  38 0
 6-311+G(2d,p)
 ****
 1  2  13  14  15  16  17  18  19  20  21  22  24  25 0
 3-21G
 ****
 27  28  29  32  34  39  40  41  42  43  44  45  46  47  48  49 0
 3-21G
 ****


