%nproc=1
%NoSave
%Mem=1900MB
#P OB98/GEN NMR

erre ene a

0 1
  C     -103.537      94.626     172.984
  O     -103.424      94.310     171.599
  P     -102.077      94.381     170.750
  C     -102.491      96.679     169.541
  O     -101.731      95.915     170.468
  C     -101.714      97.920     169.079
  O     -102.512      98.627     168.081
  C     -101.444      98.906     170.223
  O     -100.134      99.461     170.199
  C     -102.610      99.874     170.116
  O     -102.375     101.115     170.763
  C     -102.837      99.933     168.607
  N     -106.318     103.657     168.334
  C     -105.069     103.668     168.922
  N     -104.696     104.812     169.533
  N     -104.262     102.642     168.926
  C     -104.785     101.538     168.352
  C     -106.015     101.397     167.750
  C     -106.882     102.554     167.706
  O     -107.990     102.605     167.181
  N     -106.192     100.125     167.268
  C     -105.084      99.494     167.593
  N     -104.192     100.313     168.248
  O     -101.988      93.447     169.589
  O     -100.937      93.947     171.806
  H     -102.904     101.795     170.303
  H     -100.245      93.488     171.289
  H     -106.890     104.484     168.341
  H     -104.867      98.456     167.371
  H     -102.185     100.662     168.122
  H     -103.471      99.411     170.615
  H     -105.317     105.595     169.673
  H     -101.489      98.397     171.192
  H     -103.884     104.743     170.146
  H     -100.784      97.595     168.601
  H     -103.397      96.985     170.077
  H     -102.798      96.065     168.694
  P      -99.062      99.539     171.380
  C      -99.799     101.747     172.456
  O      -99.711     100.342     172.604
  O      -97.935     100.544     170.851
  O      -98.452      98.229     171.756
  H      -97.079     100.076     170.791
  H     -100.001     102.191     173.434
  H     -100.621     101.995     171.778
  H      -98.863     102.155     172.067
  H     -104.551      94.493     173.299
  H     -103.245      95.643     173.143
  H     -102.900      93.979     173.551

 3  4  5  6  7  8  9  10  11  12  23  26  30  31 0
 6-311+G(2d,p)
 ****
 33  35  36  37  38 0
 6-311+G(2d,p)
 ****
 1  2  13  14  15  16  17  18  19  20  21  22  24  25 0
 3-21G
 ****
 27  28  29  32  34  39  40  41  42  43  44  45  46  47  48  49 0
 3-21G
 ****


