%nproc=1
%NoSave
%Mem=1900MB
#P OB98/GEN NMR

erre ene a

0 1
  C       85.731      -9.581     -73.185
  O       86.340      -8.678     -72.285
  H       85.989      -9.306     -74.210
  H       86.111     -10.587     -72.985
  H       84.645      -9.583     -73.060
  P       85.717      -7.203     -72.191
  C       83.745      -8.001     -70.704
  O       84.144      -7.394     -71.924
  C       82.670      -7.163     -70.016
  O       81.582      -6.943     -70.958
  C       82.075      -7.809     -68.755
  O       81.849      -6.783     -67.784
  C       80.736      -8.339     -69.234
  O       79.784      -8.460     -68.183
  C       80.362      -7.298     -70.284
  N       75.455      -8.529     -70.786
  C       76.107      -7.777     -69.875
  N       77.416      -7.453     -69.846
  C       78.049      -7.935     -70.929
  C       77.518      -8.711     -71.943
  C       76.152      -9.026     -71.835
  N       75.493      -9.848     -72.720
  N       78.501      -9.058     -72.850
  C       79.609      -8.523     -72.375
  N       79.385      -7.836     -71.215
  O       85.782      -6.706     -73.713
  O       86.417      -6.266     -71.267
  H       80.164      -9.016     -67.476
  H       86.647      -6.293     -73.885
  H       75.503      -7.394     -69.057
  H       80.592      -8.626     -72.810
  H       79.933      -6.389     -69.844
  H       80.874      -9.326     -69.690
  H       82.705      -8.595     -68.323
  H       83.093      -6.179     -69.782
  H       84.614      -8.075     -70.042
  H       74.543     -10.104     -72.503
  H       76.023     -10.313     -73.442
  H       83.371      -9.009     -70.907
  P       82.909      -6.652     -66.588
  C       84.444      -4.851     -67.672
  O       84.313      -6.187     -67.201
  O       83.175      -8.173     -66.166
  O       82.421      -5.839     -65.434
  H       83.354      -8.232     -65.211
  H       85.435      -4.701     -68.048
  H       84.260      -4.170     -66.868
  H       83.736      -4.678     -68.455

 6  7  8  9  10  11  12  13  14  15  25  28  32  33  34  35 0
 6-311+G(2d,p)
 ****
 36  39  40 0
 6-311+G(2d,p)
 ****
 1  2  3  4  5  16  17  18  19  20  21  22  23  24 0
 3-21G
 ****
 26  27  29  30  31  37  38  41  42  43  44  45  46  47 0
 3-21G
 ****
 48 0
 3-21G
 ****


