%nproc=1
%NoSave
%Mem=1900MB
#P OB98/GEN NMR

erre ene a

0 1
  C       79.677     235.115    -271.814
  O       79.525     236.495    -272.082
  P       78.119     237.104    -272.582
  C       78.817     237.788    -274.977
  O       78.506     238.224    -273.665
  C       79.695     238.822    -275.690
  O       78.899     240.011    -275.927
  C       80.941     239.247    -274.898
  O       81.981     239.490    -275.853
  C       80.493     240.542    -274.244
  O       81.597     241.364    -273.873
  C       79.598     241.130    -275.332
  N       78.664     242.125    -274.822
  C       79.072     243.463    -274.818
  O       80.193     243.777    -275.209
  N       78.200     244.414    -274.358
  C       77.053     244.057    -273.871
  N       76.197     245.048    -273.491
  C       76.627     242.651    -273.755
  C       77.464     241.752    -274.266
  O       77.222     237.579    -271.490
  O       77.499     235.951    -273.493
  H       81.248     242.183    -273.472
  H       76.991     235.278    -272.976
  H       75.669     242.400    -273.315
  H       77.219     240.697    -274.250
  H       80.211     241.570    -276.135
  H       79.923     240.315    -273.339
  H       81.272     238.485    -274.187
  H       79.979     238.418    -276.665
  H       76.453     245.994    -273.744
  H       77.884     237.676    -275.536
  H       75.198     244.872    -273.410
  H       79.313     236.814    -274.938
  P       83.207     238.447    -275.921
  C       85.096     240.049    -275.160
  O       84.550     239.280    -276.196
  O       82.947     237.747    -277.347
  O       83.259     237.409    -274.852
  H       83.340     236.858    -277.343
  H       86.002     240.539    -275.519
  H       85.357     239.420    -274.302
  H       84.385     240.826    -274.839
  H       80.680     234.922    -271.496
  H       79.469     234.554    -272.701
  H       78.996     234.825    -271.041

 3  4  5  6  7  8  9  10  11  12  13  23  27  28  29  30  32 0
 6-311+G(2d,p)
 ****
 34  35 0
 6-311+G(2d,p)
 ****
 1  2  14  15  16  17  18  19  20  21  22  24  25  26 0
 3-21G
 ****
 31  33  36  37  38  39  40  41  42  43  44  45  46 0
 3-21G
 ****


