%nproc=1
%NoSave
%Mem=1900MB
#P OB98/GEN NMR

erre ene a

0 1
  C     -264.694      96.247      55.003
  O     -265.474      97.426      55.118
  P     -265.063      98.585      56.137
  C     -266.758      97.746      57.959
  O     -265.441      98.116      57.614
  C     -266.799      97.383      59.449
  O     -265.992      96.216      59.699
  C     -266.266      98.521      60.317
  O     -267.329      99.337      60.782
  C     -265.544      97.779      61.426
  O     -266.478      97.337      62.427
  C     -264.963      96.566      60.662
  N     -263.695      96.746      59.929
  C     -262.484      96.606      60.602
  O     -262.394      96.302      61.788
  N     -261.358      96.852      59.857
  C     -261.334      97.173      58.530
  O     -260.356      97.622      57.944
  C     -262.611      97.037      57.825
  C     -263.717      96.859      58.546
  O     -266.135      99.733      55.830
  O     -263.660      99.081      56.015
  H     -267.252      96.976      61.958
  H     -265.753     100.411      55.242
  H     -260.484      96.888      60.373
  H     -262.616      97.144      56.748
  H     -264.681      96.795      58.048
  H     -264.828      95.709      61.332
  H     -264.834      98.428      61.938
  H     -265.531      99.114      59.757
  H     -267.833      97.146      59.728
  H     -267.081      96.895      57.350
  H     -267.447      98.571      57.751
  P     -267.127     100.922      60.872
  C     -266.374     100.703      63.312
  O     -266.024     101.140      62.016
  O     -268.376     101.723      61.025
  O     -266.357     101.272      59.511
  H     -266.996     101.594      58.842
  H     -265.487     100.744      63.948
  H     -266.749      99.676      63.283
  H     -267.139     101.365      63.730
  H     -265.132      95.599      54.273
  H     -264.661      95.748      55.949
  H     -263.701      96.505      54.701

 3  4  5  6  7  8  9  10  11  12  13  23  28  29  30  31  32 0
 6-311+G(2d,p)
 ****
 33  34 0
 6-311+G(2d,p)
 ****
 1  2  14  15  16  17  18  19  20  21  22  24  25  26  27 0
 3-21G
 ****
 35  36  37  38  39  40  41  42  43  44  45 0
 3-21G
 ****


