%nproc=1
%NoSave
%Mem=1900MB
#P OB98/GEN NMR

erre ene a

0 1
  C       54.476      17.857     196.654
  O       54.588      19.260     196.553
  H       54.196      17.457     195.677
  H       53.696      17.598     197.374
  H       55.425      17.405     196.956
  P       55.266      20.073     197.757
  C       56.251      22.452     197.890
  O       55.245      21.620     197.330
  C       56.396      23.748     197.085
  O       57.188      23.473     195.893
  C       55.059      24.347     196.622
  O       55.225      25.771     196.567
  C       54.933      23.776     195.224
  O       53.993      24.491     194.454
  C       56.388      23.848     194.753
  N       56.645      22.995     193.596
  C       56.188      23.456     192.368
  O       55.566      24.512     192.233
  N       56.427      22.646     191.291
  C       57.010      21.414     191.338
  O       57.170      20.715     190.345
  C       57.434      20.955     192.669
  C       57.240      21.754     193.722
  O       56.595      19.568     198.210
  O       54.177      20.021     198.930
  H       54.226      25.444     194.435
  H       54.621      20.042     199.801
  H       56.110      22.973     190.392
  H       57.893      19.978     192.741
  H       57.540      21.445     194.716
  H       56.657      24.879     194.479
  H       54.597      22.734     195.262
  H       54.222      24.085     197.272
  H       56.965      24.470     197.684
  H       57.195      21.898     197.873
  H       55.996      22.686     198.928
  P       54.294      26.771     197.406
  C       54.509      29.094     198.502
  O       55.045      28.183     197.545
  O       53.801      26.212     198.702
  O       53.067      27.101     196.429
  H       52.274      27.313     196.959
  H       55.090      29.993     198.503
  H       54.539      28.649     199.474
  H       53.496      29.324     198.247

 6  7  8  9  10  11  12  13  14  15  16  26  31  32  33  34  35 0
 6-311+G(2d,p)
 ****
 36  37 0
 6-311+G(2d,p)
 ****
 1  2  3  4  5  17  18  19  20  21  22  23  24  25 0
 3-21G
 ****
 27  28  29  30  38  39  40  41  42  43  44  45 0
 3-21G
 ****


