%nproc=1
%NoSave
%Mem=1900MB
#P OB98/GEN NMR

erre ene a

0 1
  C       45.788    -179.383     -22.631
  O       44.619    -178.699     -22.166
  P       44.607    -178.301     -20.609
  C       43.270    -180.465     -20.106
  O       44.376    -179.644     -19.757
  C       43.073    -181.602     -19.094
  O       44.133    -182.597     -19.214
  C       43.067    -181.131     -17.632
  O       42.146    -181.974     -16.922
  C       44.479    -181.451     -17.173
  O       44.570    -181.498     -15.751
  C       44.697    -182.780     -17.895
  N       47.873    -186.697     -17.611
  C       46.513    -186.637     -17.373
  N       45.900    -187.801     -17.062
  N       45.813    -185.530     -17.435
  C       46.556    -184.453     -17.797
  C       47.902    -184.389     -18.074
  C       48.668    -185.613     -17.970
  O       49.871    -185.724     -18.175
  N       48.285    -183.112     -18.436
  C       47.172    -182.407     -18.309
  N       46.088    -183.177     -17.978
  O       43.229    -177.502     -20.448
  O       45.781    -177.475     -20.190
  H       45.492    -181.741     -15.521
  H       43.397    -176.540     -20.443
  H       48.362    -187.575     -17.530
  H       47.093    -181.341     -18.466
  H       44.168    -183.609     -17.406
  H       45.180    -180.688     -17.537
  H       46.365    -188.697     -17.049
  H       42.803    -180.079     -17.494
  H       44.893    -187.792     -16.924
  H       42.122    -182.103     -19.323
  H       43.422    -180.896     -21.099
  H       42.371    -179.842     -20.178
  P       40.836    -181.292     -16.296
  C       41.306    -182.620     -14.122
  O       40.978    -181.375     -14.704
  O       39.682    -182.354     -16.625
  O       40.502    -179.945     -16.859
  H       38.859    -181.883     -16.864
  H       41.808    -182.443     -13.168
  H       41.973    -183.208     -14.765
  H       40.392    -183.191     -13.940
  H       45.685    -179.596     -23.675
  H       45.904    -180.299     -22.090
  H       46.648    -178.765     -22.476

 3  4  5  6  7  8  9  10  11  12  23  26  30  31 0
 6-311+G(2d,p)
 ****
 33  35  36  37  38 0
 6-311+G(2d,p)
 ****
 1  2  13  14  15  16  17  18  19  20  21  22  24  25 0
 3-21G
 ****
 27  28  29  32  34  39  40  41  42  43  44  45  46  47  48  49 0
 3-21G
 ****


