%nproc=1
%NoSave
%Mem=1900MB
#P OB98/GEN NMR

erre ene a

0 1
  C     -363.251      95.380      41.149
  O     -364.254      94.388      41.370
  P     -365.375      94.701      42.470
  C     -367.281      95.971      41.181
  O     -366.793      94.754      41.721
  C     -368.681      95.782      40.561
  O     -368.604      94.733      39.565
  C     -369.770      95.341      41.537
  O     -371.041      95.614      40.956
  C     -369.547      93.842      41.586
  O     -370.685      93.158      42.102
  C     -369.171      93.515      40.122
  N     -368.214      92.401      39.991
  C     -368.706      91.128      39.680
  O     -369.900      90.883      39.509
  N     -367.782      90.119      39.610
  C     -366.434      90.261      39.775
  O     -365.656      89.308      39.785
  C     -365.954      91.633      39.960
  C     -366.845      92.618      40.070
  O     -365.090      96.217      42.876
  O     -365.339      93.781      43.647
  H     -370.505      92.196      42.000
  H     -364.668      96.260      43.757
  H     -368.132      89.186      39.454
  H     -364.878      91.792      40.031
  H     -366.503      93.643      40.231
  H     -370.061      93.248      39.536
  H     -368.704      93.613      42.248
  H     -369.705      95.795      42.529
  H     -368.973      96.711      40.050
  H     -366.580      96.353      40.428
  H     -367.328      96.730      41.974
  P     -372.237      96.066      41.931
  C     -371.639      98.539      42.308
  O     -372.492      97.625      41.642
  O     -372.087      95.690      43.368
  O     -373.520      95.373      41.266
  H     -374.248      95.326      41.925
  H     -371.540      99.442      41.692
  H     -370.648      98.113      42.485
  H     -372.090      98.820      43.267
  H     -362.573      95.040      40.394
  H     -362.714      95.553      42.058
  H     -363.714      96.290      40.829

 3  4  5  6  7  8  9  10  11  12  13  23  28  29  30  31  32 0
 6-311+G(2d,p)
 ****
 33  34 0
 6-311+G(2d,p)
 ****
 1  2  14  15  16  17  18  19  20  21  22  24  25  26  27 0
 3-21G
 ****
 35  36  37  38  39  40  41  42  43  44  45 0
 3-21G
 ****


