%nproc=1
%NoSave
%Mem=1900MB
#P OB98/GEN NMR

erre ene a

0 1
  C      -73.429     247.277     231.311
  O      -72.154     246.782     230.948
  H      -73.803     246.697     232.158
  H      -74.127     247.172     230.475
  H      -73.355     248.328     231.605
  P      -71.446     247.462     229.678
  C      -72.446     246.138     227.677
  O      -71.340     246.324     228.550
  C      -72.160     244.971     226.734
  O      -73.355     244.638     225.991
  C      -71.095     245.266     225.688
  O      -69.783     245.183     226.214
  C      -71.393     244.178     224.664
  O      -70.763     242.934     225.019
  C      -72.933     244.061     224.737
  N      -73.585     244.693     223.595
  C      -73.289     244.145     222.348
  O      -72.524     243.191     222.198
  N      -73.871     244.758     221.272
  C      -74.671     245.863     221.318
  O      -75.101     246.409     220.303
  C      -74.964     246.394     222.658
  C      -74.407     245.800     223.722
  O      -69.934     247.657     230.170
  O      -72.063     248.742     229.220
  H      -69.780     248.589     230.406
  H      -71.211     242.243     224.496
  H      -73.657     244.381     220.361
  H      -75.602     247.265     222.731
  H      -74.593     246.185     224.719
  H      -73.237     243.005     224.756
  H      -71.022     244.446     223.672
  H      -71.277     246.244     225.221
  H      -71.876     244.097     227.339
  H      -72.602     247.047     227.083
  H      -73.346     245.946     228.274
  P      -68.838     246.475     226.117
  C      -68.268     246.201     223.564
  O      -67.814     246.209     224.908
  O      -67.943     246.300     227.429
  O      -69.587     247.764     226.031
  H      -67.738     245.367     227.630
  H      -67.443     246.008     222.910
  H      -68.697     247.152     223.327
  H      -69.007     245.437     223.442

 6  7  8  9  10  11  12  13  14  15  16  27  31  32  33  34  35 0
 6-311+G(2d,p)
 ****
 36  37 0
 6-311+G(2d,p)
 ****
 1  2  3  4  5  17  18  19  20  21  22  23  24  25 0
 3-21G
 ****
 26  28  29  30  38  39  40  41  42  43  44  45 0
 3-21G
 ****


