%nproc=1
%NoSave
%Mem=1900MB
#P OB98/GEN NMR

erre ene a

0 1
  C     -376.011     -76.374     123.459
  O     -376.609     -75.204     124.028
  P     -377.058     -75.181     125.570
  C     -375.062     -73.951     126.605
  O     -376.445     -73.867     126.272
  C     -374.451     -72.606     127.025
  O     -374.345     -71.705     125.893
  C     -375.229     -71.861     128.119
  O     -374.241     -71.166     128.894
  C     -376.070     -70.887     127.316
  O     -376.556     -69.804     128.099
  C     -375.088     -70.509     126.195
  N     -375.765     -69.971     125.017
  C     -375.353     -68.714     124.569
  O     -374.497     -68.080     125.188
  N     -375.955     -68.179     123.457
  C     -376.951     -68.805     122.900
  N     -377.525     -68.218     121.814
  C     -377.473     -70.094     123.392
  C     -376.832     -70.620     124.440
  O     -376.812     -76.454     126.313
  O     -378.629     -74.858     125.507
  H     -377.222     -69.317     127.568
  H     -379.076     -75.276     126.271
  H     -378.324     -70.564     122.917
  H     -377.137     -71.565     124.870
  H     -374.368     -69.757     126.554
  H     -376.938     -71.412     126.891
  H     -375.828     -72.516     128.750
  H     -373.428     -72.803     127.367
  H     -377.153     -67.320     121.522
  H     -374.518     -74.332     125.731
  H     -378.370     -68.559     121.382
  H     -374.934     -74.686     127.409
  P     -373.726     -71.720     130.306
  C     -371.931     -73.383     129.549
  O     -372.182     -72.109     130.115
  O     -374.574     -72.798     130.903
  O     -373.663     -70.427     131.260
  H     -373.636     -70.721     132.190
  H     -370.876     -73.451     129.273
  H     -372.543     -73.541     128.653
  H     -372.159     -74.168     130.279
  H     -375.784     -76.194     122.429
  H     -376.692     -77.196     123.535
  H     -375.110     -76.607     123.987

 3  4  5  6  7  8  9  10  11  12  13  23  27  28  29  30  32 0
 6-311+G(2d,p)
 ****
 34  35 0
 6-311+G(2d,p)
 ****
 1  2  14  15  16  17  18  19  20  21  22  24  25  26 0
 3-21G
 ****
 31  33  36  37  38  39  40  41  42  43  44  45  46 0
 3-21G
 ****


