%nproc=1
%NoSave
%Mem=1900MB
#P OB98/GEN NMR

erre ene a

0 1
  C     -970.746    -829.173    -690.046
  O     -971.123    -827.931    -690.601
  H     -970.095    -828.992    -689.190
  H     -970.187    -829.759    -690.784
  H     -971.625    -829.738    -689.709
  P     -972.215    -827.912    -691.780
  C     -972.491    -829.049    -694.069
  O     -971.627    -828.793    -692.980
  C     -971.935    -828.392    -695.342
  O     -970.548    -828.781    -695.511
  C     -972.630    -828.839    -696.621
  O     -973.888    -828.220    -696.770
  C     -971.600    -828.452    -697.661
  O     -971.682    -827.058    -697.979
  C     -970.276    -828.768    -696.939
  N     -969.676    -830.021    -697.375
  C     -968.622    -829.933    -698.268
  O     -968.172    -828.860    -698.673
  N     -968.123    -831.126    -698.719
  C     -968.661    -832.358    -698.495
  O     -968.340    -833.356    -699.122
  C     -969.746    -832.395    -697.494
  C     -970.206    -831.256    -696.980
  O     -972.718    -826.557    -692.172
  O     -973.399    -828.833    -691.205
  H     -974.124    -828.263    -690.887
  H     -971.896    -826.604    -697.136
  H     -967.372    -831.062    -699.404
  H     -970.145    -833.361    -697.222
  H     -971.013    -831.271    -696.282
  H     -969.547    -827.952    -697.102
  H     -971.724    -829.017    -698.592
  H     -972.749    -829.934    -696.619
  H     -971.965    -827.316    -695.236
  H     -973.482    -828.599    -693.852
  H     -972.604    -830.122    -694.208
  P     -974.899    -828.680    -697.934
  C     -975.196    -828.330    -700.456
  O     -974.422    -828.005    -699.303
  O     -976.342    -828.523    -697.630
  O     -974.527    -830.223    -698.150
  H     -975.368    -830.753    -698.150
  H     -974.792    -827.828    -701.310
  H     -976.209    -828.019    -700.305
  H     -975.168    -829.387    -700.618

 6  7  8  9  10  11  12  13  14  15  16  27  31  32  33  34  35 0
 6-311+G(2d,p)
 ****
 36  37 0
 6-311+G(2d,p)
 ****
 1  2  3  4  5  17  18  19  20  21  22  23  24  25 0
 3-21G
 ****
 26  28  29  30  38  39  40  41  42  43  44  45 0
 3-21G
 ****


