%nproc=1
%NoSave
%Mem=1900MB
#P OB98/GEN NMR

erre ene a

0 1
  C        2.417      74.026    -172.992
  O        1.288      74.796    -173.376
  P        1.538      76.315    -173.828
  C        1.778      78.538    -172.527
  O        1.942      77.126    -172.503
  C        2.520      79.192    -171.367
  O        3.900      78.735    -171.373
  C        2.544      80.730    -171.417
  O        2.292      81.251    -170.105
  C        3.988      81.050    -171.770
  O        4.376      82.342    -171.317
  C        4.707      79.890    -171.078
  N        9.376      81.818    -170.984
  C        8.266      82.155    -170.233
  N        8.412      83.193    -169.377
  N        7.119      81.538    -170.315
  C        7.128      80.500    -171.188
  C        8.165      80.064    -171.981
  C        9.413      80.796    -171.925
  O       10.403      80.603    -172.627
  N        7.798      78.971    -172.726
  C        6.541      78.749    -172.387
  N        6.075      79.680    -171.492
  O        0.060      76.833    -174.158
  O        2.446      76.489    -174.997
  H        3.794      82.988    -171.761
  H        0.028      77.175    -175.074
  H       10.232      82.339    -170.893
  H        5.924      77.952    -172.784
  H        4.709      80.039    -169.988
  H        4.111      81.008    -172.859
  H        9.279      83.687    -169.237
  H        1.837      81.166    -172.130
  H        7.617      83.440    -168.802
  H        2.073      78.845    -170.425
  H        0.712      78.776    -172.450
  H        2.156      78.920    -173.481
  P        1.677      82.733    -170.043
  C        2.516      85.037    -170.932
  O        2.837      83.708    -170.567
  O        1.604      83.038    -168.472
  O        0.352      82.867    -170.717
  H        0.920      83.709    -168.288
  H        1.491      85.304    -170.652
  H        2.627      85.144    -172.012
  H        3.208      85.719    -170.431
  H        2.101      73.041    -172.718
  H        2.899      74.491    -172.157
  H        3.103      73.965    -173.811

 3  4  5  6  7  8  9  10  11  12  23  26  30  31  33  0
 6-311+G(2d,p)
 ****
 35  36  37  38 0
 6-311+G(2d,p)
 ****
 1  2  13  14  15  16  17  18  19  20  21  22  24  25  27  28  29 0
 3-21G
 ****
 32  34  39  40  41  42  43  44  45  46  47  48  49 0
 3-21G
 ****


