%nproc=1
%NoSave
%Mem=1900MB
#P OB98/GEN NMR

erre ene a

0 1
  C      -24.586      14.548     -65.957
  O      -24.522      15.435     -64.862
  P      -25.850      15.956     -64.135
  C      -27.535      17.853     -64.579
  O      -26.555      16.990     -65.144
  C      -28.343      18.538     -65.687
  O      -28.845      17.513     -66.600
  C      -29.555      19.324     -65.145
  O      -29.623      20.680     -65.586
  C      -30.729      18.446     -65.546
  O      -31.967      19.129     -65.594
  C      -30.226      17.833     -66.857
  N      -31.003      16.664     -67.263
  C      -32.382      16.820     -67.354
  O      -32.980      17.868     -67.126
  N      -33.093      15.693     -67.662
  C      -32.588      14.433     -67.772
  O      -33.297      13.452     -67.952
  C      -31.128      14.324     -67.627
  C      -30.409      15.427     -67.407
  O      -25.657      16.482     -62.753
  O      -26.829      14.691     -64.219
  H      -31.965      19.804     -64.889
  H      -27.029      14.388     -65.122
  H      -34.094      15.792     -67.730
  H      -30.700      13.335     -67.699
  H      -29.331      15.377     -67.296
  H      -30.245      18.559     -67.671
  H      -30.830      17.657     -64.790
  H      -29.516      19.403     -64.053
  H      -27.664      19.192     -66.240
  H      -27.030      18.615     -63.981
  H      -28.186      17.285     -63.906
  P      -30.538      21.816     -64.927
  C      -33.077      22.375     -64.928
  O      -32.070      21.406     -65.137
  O      -30.198      23.214     -65.321
  O      -30.319      21.604     -63.355
  H      -30.430      22.456     -62.893
  H      -33.993      21.865     -64.615
  H      -33.274      22.899     -65.867
  H      -32.790      23.095     -64.158
  H      -23.595      14.325     -66.294
  H      -25.139      15.002     -66.752
  H      -25.072      13.644     -65.656

 3  4  5  6  7  8  9  10  11  12  13  23  28  29  30  31  32 0
 6-311+G(2d,p)
 ****
 33  34 0
 6-311+G(2d,p)
 ****
 1  2  14  15  16  17  18  19  20  21  22  24  25  26  27 0
 3-21G
 ****
 35  36  37  38  39  40  41  42  43  44  45 0
 3-21G
 ****


