%nproc=1
%NoSave
%Mem=1900MB
#P OB98/GEN NMR

erre ene a

0 1
  C     -156.582     400.700     248.646
  O     -155.572     401.141     247.756
  P     -155.991     401.557     246.266
  C     -155.714     399.250     245.029
  O     -155.216     400.559     245.273
  C     -154.757     398.485     244.114
  O     -155.244     397.117     243.957
  C     -154.622     399.081     242.693
  O     -153.262     398.866     242.276
  C     -155.571     398.219     241.876
  O     -155.270     398.240     240.489
  C     -155.376     396.854     242.546
  N     -156.478     395.924     242.300
  C     -156.244     394.849     241.446
  O     -155.170     394.646     240.867
  N     -157.309     394.006     241.246
  C     -158.572     394.162     241.748
  O     -159.491     393.378     241.523
  C     -158.771     395.338     242.606
  C     -157.729     396.142     242.851
  O     -155.212     402.944     246.104
  O     -157.468     401.635     246.054
  H     -154.344     402.950     246.555
  H     -154.382     397.845     240.367
  H     -157.153     393.200     240.660
  H     -159.765     395.513     243.015
  H     -157.855     397.023     243.477
  H     -154.429     396.403     242.211
  H     -156.599     398.590     242.004
  H     -154.858     400.144     242.663
  H     -153.774     398.427     244.598
  H     -156.695     399.319     244.547
  H     -155.839     398.730     245.986
  P     -152.373     400.155     241.894
  C     -152.194     399.546     239.350
  O     -151.540     399.791     240.582
  O     -151.267     400.085     243.061
  O     -153.123     401.450     241.885
  H     -150.879     399.201     243.162
  H     -151.476     399.644     238.535
  H     -153.020     400.237     239.183
  H     -152.580     398.518     239.349
  H     -156.144     400.462     249.593
  H     -157.057     399.830     248.244
  H     -157.308     401.475     248.774

 3  4  5  6  7  8  9  10  11  12  13  24  28  29  30  31  32 0
 6-311+G(2d,p)
 ****
 33  34 0
 6-311+G(2d,p)
 ****
 1  2  14  15  16  17  18  19  20  21  22  23  25  26  27 0
 3-21G
 ****
 35  36  37  38  39  40  41  42  43  44  45 0
 3-21G
 ****


