%nproc=1
%NoSave
%Mem=1900MB
#P OB98/GEN NMR

erre ene a

0 1
  C       96.465       0.879       4.701
  O       97.474       1.642       5.333
  H       96.938       0.183       4.003
  H       95.786       1.527       4.140
  H       95.903       0.304       5.442
  P       97.033       2.798       6.349
  C       97.035       4.341       4.273
  O       96.357       3.947       5.461
  C       96.187       5.325       3.471
  O       94.956       4.702       3.054
  C       95.778       6.572       4.248
  O       96.869       7.461       4.373
  C       94.625       7.068       3.392
  O       95.107       7.749       2.222
  C       93.941       5.734       3.003
  N       92.809       5.389       3.857
  C       91.601       6.035       3.567
  O       91.539       6.851       2.649
  N       90.505       5.747       4.344
  C       90.590       4.866       5.289
  N       89.467       4.626       6.016
  C       91.835       4.140       5.604
  C       92.897       4.455       4.865
  O       98.089       3.286       7.293
  O       95.787       2.167       7.133
  H       95.610       7.085       1.710
  H       96.082       1.751       7.965
  H       91.858       3.406       6.396
  H       93.851       3.965       5.031
  H       93.584       5.774       1.966
  H       93.982       7.767       3.926
  H       95.383       6.294       5.231
  H       96.745       5.592       2.564
  H       88.631       5.135       5.750
  H       97.212       3.433       3.687
  H       89.373       3.854       6.661
  H       98.006       4.789       4.513
  P       97.209       8.183       5.764
  C       95.736      10.193       5.129
  O       95.966       9.153       6.067
  O       98.547       8.837       5.829
  O       97.013       7.022       6.848
  H       97.791       6.410       6.841
  H       94.888      10.769       5.436
  H       95.549       9.769       4.165
  H       96.597      10.826       5.080

 6  7  8  9  10  11  12  13  14  15  16  26  30  31  32  33  35 0
 6-311+G(2d,p)
 ****
 37  38 0
 6-311+G(2d,p)
 ****
 1  2  3  4  5  17  18  19  20  21  22  23  24  25 0
 3-21G
 ****
 27  28  29  34  36  39  40  41  42  43  44  45  46 0
 3-21G
 ****


