%nproc=1
%NoSave
%Mem=1900MB
#P OB98/GEN NMR

erre ene a

0 1
  C       34.310     -89.928     -69.345
  O       34.507     -89.196     -68.157
  P       33.487     -89.345     -66.929
  C       34.889     -91.325     -66.070
  O       33.592     -90.872     -66.441
  C       34.787     -92.324     -64.921
  O       34.507     -91.651     -63.666
  C       33.651     -93.326     -65.068
  O       33.738     -94.255     -66.126
  C       33.564     -93.887     -63.659
  O       34.555     -94.888     -63.434
  C       33.866     -92.627     -62.808
  N       32.659     -92.089     -62.182
  C       32.734     -91.861     -60.814
  O       33.737     -92.085     -60.139
  N       31.593     -91.387     -60.224
  C       30.399     -91.171     -60.848
  O       29.402     -90.789     -60.249
  C       30.377     -91.447     -62.292
  C       31.489     -91.887     -62.886
  O       32.098     -88.873     -67.196
  O       34.223     -88.560     -65.743
  H       35.430     -94.463     -63.526
  H       35.098     -88.913     -65.502
  H       31.620     -91.227     -59.230
  H       29.448     -91.273     -62.819
  H       31.496     -92.099     -63.950
  H       34.584     -92.866     -62.014
  H       32.590     -94.347     -63.463
  H       32.724     -92.766     -65.247
  H       35.754     -92.822     -64.812
  H       35.485     -90.467     -65.743
  H       35.385     -91.767     -66.940
  P       32.519     -95.187     -66.584
  C       32.069     -93.588     -68.573
  O       31.528     -94.311     -67.490
  O       31.906     -96.054     -65.535
  O       33.226     -96.122     -67.683
  H       32.794     -96.997     -67.681
  H       31.266     -93.018     -69.048
  H       32.496     -94.270     -69.313
  H       32.833     -92.888     -68.224
  H       35.089     -89.695     -70.041
  H       33.363     -89.670     -69.770
  H       34.329     -90.975     -69.126

 3  4  5  6  7  8  9  10  11  12  13  23  28  29  30  31  32 0
 6-311+G(2d,p)
 ****
 33  34 0
 6-311+G(2d,p)
 ****
 1  2  14  15  16  17  18  19  20  21  22  24  25  26  27 0
 3-21G
 ****
 35  36  37  38  39  40  41  42  43  44  45 0
 3-21G
 ****


