%nproc=1
%NoSave
%Mem=1900MB
#P OB98/GEN NMR

erre ene a

0 1
  C     -261.831    1639.185    -303.219
  O     -260.678    1639.849    -302.742
  H     -261.765    1639.122    -304.313
  H     -262.729    1639.736    -302.954
  H     -261.877    1638.168    -302.812
  P     -260.592    1640.245    -301.190
  C     -258.962    1638.410    -300.466
  O     -260.303    1638.859    -300.423
  C     -258.797    1637.033    -299.848
  O     -259.400    1637.012    -298.523
  C     -259.452    1635.901    -300.668
  O     -258.547    1634.803    -300.780
  C     -260.664    1635.501    -299.833
  O     -261.084    1634.165    -300.102
  C     -260.138    1635.776    -298.413
  N     -261.208    1635.885    -297.427
  C     -261.587    1634.688    -296.788
  O     -261.041    1633.614    -297.084
  N     -262.578    1634.728    -295.850
  C     -263.195    1635.838    -295.614
  N     -264.191    1635.811    -294.682
  C     -262.869    1637.112    -296.292
  C     -261.867    1637.051    -297.173
  O     -261.774    1641.016    -300.676
  O     -259.206    1641.029    -301.045
  H     -261.777    1633.925    -299.445
  H     -259.216    1641.579    -300.227
  H     -263.422    1638.003    -296.066
  H     -261.562    1637.943    -297.724
  H     -259.451    1634.989    -298.093
  H     -261.502    1636.183    -300.057
  H     -259.751    1636.214    -301.667
  H     -257.731    1636.831    -299.696
  H     -264.378    1634.922    -294.230
  H     -258.327    1639.138    -299.935
  H     -264.726    1636.619    -294.412
  H     -258.645    1638.364    -301.525
  P     -257.902    1634.566    -302.236
  C     -255.603    1635.582    -301.599
  O     -256.743    1635.656    -302.447
  O     -259.072    1635.061    -303.225
  O     -257.518    1633.148    -302.499
  H     -259.550    1634.286    -303.580
  H     -254.919    1636.365    -301.852
  H     -255.124    1634.634    -301.728
  H     -255.909    1635.691    -300.580

 6  7  8  9  10  11  12  13  14  15  16  26  30  31  32  33  35 0
 6-311+G(2d,p)
 ****
 37  38 0
 6-311+G(2d,p)
 ****
 1  2  3  4  5  17  18  19  20  21  22  23  24  25 0
 3-21G
 ****
 27  28  29  34  36  39  40  41  42  43  44  45  46 0
 3-21G
 ****


