%nproc=1
%NoSave
%Mem=1900MB
#P OB98/GEN NMR

erre ene a

0 1
  C      109.024     142.401    -201.147
  O      108.212     143.081    -200.212
  H      109.123     142.990    -202.062
  H      110.018     142.260    -200.712
  H      108.598     141.422    -201.378
  P      106.697     143.383    -200.652
  C      106.128     145.078    -198.766
  O      106.387     144.875    -200.149
  C      106.843     146.338    -198.291
  O      108.264     146.096    -198.185
  C      106.696     147.533    -199.225
  O      105.464     148.208    -199.045
  C      107.866     148.387    -198.770
  O      107.529     149.051    -197.537
  C      108.951     147.331    -198.527
  N      113.412     145.401    -200.124
  C      112.864     145.506    -198.897
  N      111.671     146.036    -198.554
  C      111.025     146.493    -199.637
  C      111.464     146.464    -200.952
  C      112.719     145.879    -201.184
  N      113.290     145.784    -202.435
  N      110.538     147.062    -201.787
  C      109.546     147.411    -200.993
  N      109.799     147.099    -199.683
  O      105.830     142.477    -199.658
  O      106.377     143.127    -202.086
  H      108.373     149.316    -197.123
  H      104.941     142.327    -200.031
  H      113.462     145.110    -198.079
  H      108.632     147.890    -201.316
  H      109.606     147.587    -197.686
  H      108.134     149.164    -199.488
  H      106.848     147.246    -200.275
  H      106.470     146.581    -197.287
  H      106.499     144.217    -198.202
  H      114.262     145.520    -202.468
  H      112.848     146.271    -203.201
  H      105.049     145.170    -198.611
  P      104.850     148.976    -200.314
  C      103.119     149.989    -198.658
  O      104.039     150.224    -199.719
  O      103.700     147.985    -200.818
  O      105.839     149.293    -201.388
  H      103.533     148.106    -201.771
  H      102.660     150.913    -198.372
  H      103.639     149.575    -197.820
  H      102.366     149.303    -198.984

 6  7  8  9  10  11  12  13  14  15  25  28  32  33  34  35 0
 6-311+G(2d,p)
 ****
 36  39  40 0
 6-311+G(2d,p)
 ****
 1  2  3  4  5  16  17  18  19  20  21  22  23  24 0
 3-21G
 ****
 26  27  29  30  31  37  38  41  42  43  44  45  46  47 0
 3-21G
 ****
 48 0
 3-21G
 ****


