%nproc=1
%NoSave
%Mem=1900MB
#P OB98/GEN NMR

erre ene a

0 1
  C      598.451    -897.460     226.937
  O      598.650    -897.110     225.586
  H      598.644    -896.580     227.558
  H      599.162    -898.250     227.226
  H      597.429    -897.790     227.120
  P      598.014    -898.040     224.454
  C      597.181    -896.080     222.978
  O      596.816    -897.230     223.742
  C      597.058    -894.800     223.796
  O      597.983    -894.840     224.897
  C      597.392    -893.550     222.970
  O      596.298    -893.000     222.250
  C      597.877    -892.580     224.070
  O      596.777    -891.840     224.614
  C      598.497    -893.500     225.109
  N      602.834    -890.820     225.209
  C      601.531    -890.340     225.090
  N      601.390    -889.030     224.930
  N      600.478    -891.140     225.083
  C      600.807    -892.460     225.146
  C      602.058    -893.020     225.267
  C      603.204    -892.150     225.330
  O      604.366    -892.500     225.461
  N      601.985    -894.410     225.270
  C      600.713    -894.650     225.063
  N      599.947    -893.520     225.077
  O      597.221    -899.170     225.293
  O      598.998    -898.680     223.507
  H      597.111    -891.330     225.382
  H      597.221    -900.000     224.793
  H      603.602    -890.140     225.225
  H      600.281    -895.650     224.955
  H      598.192    -893.200     226.133
  H      598.573    -891.850     223.645
  H      602.157    -888.370     224.815
  H      598.247    -893.740     222.300
  H      600.477    -888.660     224.633
  H      596.047    -894.720     224.217
  H      596.489    -896.060     222.126
  H      598.201    -896.200     222.580
  P      596.386    -892.770     220.663
  C      594.745    -894.610     219.745
  O      596.076    -894.140     219.946
  O      597.978    -892.560     220.432
  O      595.590    -891.620     220.147
  H      598.181    -891.640     220.361
  H      594.772    -895.554     219.242
  H      594.204    -893.904     219.150
  H      594.260    -894.724     220.692

 6  7  8  9  10  11  12  13  14  15  26  29  33  34 0
 6-311+G(2d,p)
 ****
 36  38  39  40  41 0
 6-311+G(2d,p)
 ****
 1  2  3  4  5  16  17  18  19  20  21  22  23  24  25 0
 3-21G
 ****
 27  28  30  31  32  35  37  42  43  44  45  46  47 0
 3-21G
 ****
 48  49 0
 3-21G
 ****


