%nproc=1
%NoSave
%Mem=1900MB
#P OB98/GEN NMR

erre ene a

0 1
  C      326.007      72.516     597.726
  O      326.287      72.599     596.341
  H      325.777      73.517     598.098
  H      326.880      72.133     598.264
  H      325.149      71.864     597.900
  P      326.636      71.223     595.594
  C      324.602      71.389     593.984
  O      325.250      70.658     595.017
  C      323.089      71.201     594.090
  O      322.603      71.860     595.286
  C      322.308      71.824     592.937
  O      322.339      71.019     591.775
  C      320.926      71.946     593.557
  O      320.198      70.715     593.466
  C      321.240      72.268     595.023
  N      317.938      76.164     594.976
  C      317.785      74.846     594.705
  N      318.715      73.869     594.752
  C      319.899      74.362     595.155
  C      320.203      75.677     595.471
  C      319.152      76.605     595.366
  N      319.310      77.948     595.619
  N      321.538      75.801     595.800
  C      322.029      74.586     595.698
  N      321.076      73.680     595.313
  O      326.975      70.233     596.804
  O      327.752      71.302     594.611
  H      320.691      70.062     594.000
  H      327.943      70.154     596.901
  H      316.787      74.538     594.400
  H      323.061      74.309     595.885
  H      320.596      71.719     595.719
  H      320.342      72.715     593.052
  H      322.691      72.831     592.725
  H      322.876      70.128     594.178
  H      324.941      71.020     593.010
  H      324.867      72.449     594.075
  H      318.532      78.567     595.460
  H      320.239      78.308     595.803
  P      323.636      71.120     590.833
  C      323.867      68.523     590.818
  O      324.488      69.779     591.053
  O      324.526      72.256     591.531
  O      323.344      71.441     589.406
  H      324.988      72.779     590.847
  H      324.568      67.737     591.010
  H      323.542      68.471     589.800
  H      323.024      68.415     591.468

 6  7  8  9  10  11  12  13  14  15  25  28  32  33  34  35 0
 6-311+G(2d,p)
 ****
 36  37  40 0
 6-311+G(2d,p)
 ****
 1  2  3  4  5  16  17  18  19  20  21  22  23  24 0
 3-21G
 ****
 26  27  29  30  31  38  39 41  42  43  44  45  46  47  48 0
 3-21G
 ****


