%nproc=1
%NoSave
%Mem=1900MB
#P OB98/GEN NMR

erre ene a

0 1
  C      -73.796      77.196     -27.117
  O      -74.792      78.198     -27.161
  H      -74.158      76.373     -26.497
  H      -72.874      77.586     -26.676
  H      -73.598      76.814     -28.121
  P      -74.455      79.574     -27.917
  C      -74.751      81.020     -25.789
  O      -73.852      80.520     -26.766
  C      -74.903      82.532     -25.935
  O      -75.776      83.067     -24.919
  C      -73.607      83.323     -25.787
  O      -72.750      83.219     -26.912
  C      -74.171      84.725     -25.613
  O      -74.607      85.230     -26.888
  C      -75.379      84.449     -24.685
  N      -75.072      84.658     -23.271
  C      -75.415      85.906     -22.734
  O      -75.945      86.766     -23.437
  N      -75.113      86.167     -21.419
  C      -74.505      85.269     -20.708
  N      -74.187      85.596     -19.425
  C      -74.142      83.937     -21.228
  C      -74.446      83.701     -22.503
  O      -75.562      80.173     -28.723
  O      -73.147      79.244     -28.779
  H      -75.154      86.016     -26.711
  H      -72.905      80.062     -29.278
  H      -73.630      83.227     -20.595
  H      -74.197      82.752     -22.962
  H      -76.232      85.079     -24.959
  H      -73.444      85.437     -25.213
  H      -73.080      83.043     -24.868
  H      -75.382      82.724     -26.904
  H      -74.412      86.531     -19.115
  H      -74.362      80.759     -24.800
  H      -73.485      85.076     -18.907
  H      -75.737      80.562     -25.915
  P      -71.228      83.707     -26.745
  C      -71.527      85.734     -28.356
  O      -71.215      85.283     -27.047
  O      -70.508      83.070     -28.022
  O      -70.562      83.327     -25.459
  H      -70.104      82.209     -27.804
  H      -71.473      86.802     -28.387
  H      -72.516      85.419     -28.616
  H      -70.827      85.321     -29.052

 6  7  8  9  10  11  12  13  14  15  16  26  30  31  32  33  35 0
 6-311+G(2d,p)
 ****
 37  38 0
 6-311+G(2d,p)
 ****
 1  2  3  4  5  17  18  19  20  21  22  23  24  25 0
 3-21G
 ****
 27  28  29  34  36  39  40  41  42  43  44  45  46 0
 3-21G
 ****


