%nproc=1
%NoSave
%Mem=1900MB
#P OB98/GEN NMR

erre ene a

0 1
  C      340.325    -539.440     194.911
  O      341.093    -540.578     195.246
  P      340.467    -542.037     195.418
  C      338.317    -542.939     196.552
  O      339.359    -541.984     196.582
  C      337.238    -542.698     197.622
  O      336.623    -541.415     197.391
  C      336.122    -543.740     197.501
  O      336.270    -545.008     198.110
  C      334.842    -543.003     197.869
  O      334.452    -543.216     199.228
  C      335.212    -541.526     197.646
  N      330.686    -540.716     195.497
  C      330.979    -541.176     196.771
  N      329.925    -541.642     197.483
  N      332.186    -541.184     197.280
  C      333.143    -540.770     196.413
  C      332.973    -540.279     195.134
  C      331.629    -540.237     194.599
  O      331.342    -539.925     193.446
  N      334.175    -540.026     194.526
  C      335.073    -540.388     195.420
  N      334.493    -540.890     196.565
  O      341.430    -543.183     195.398
  O      339.558    -542.150     194.087
  H      335.260    -543.167     199.781
  H      339.573    -543.083     193.797
  H      329.750    -540.807     195.130
  H      336.152    -540.355     195.277
  H      335.011    -540.937     198.557
  H      334.007    -543.336     197.249
  H      329.025    -541.788     197.072
  H      336.018    -543.971     196.430
  H      330.131    -542.137     198.343
  H      337.679    -542.641     198.622
  H      338.772    -543.934     196.691
  H      337.843    -542.949     195.566
  P      335.392    -546.316     197.799
  C      333.028    -547.173     198.270
  O      333.998    -546.188     198.575
  O      336.138    -547.490     198.599
  O      335.276    -546.668     196.347
  H      335.910    -548.357     198.207
  H      332.048    -546.829     198.605
  H      333.273    -548.105     198.792
  H      332.987    -547.362     197.187
  H      340.963    -538.583     194.853
  H      339.579    -539.279     195.661
  H      339.851    -539.596     193.965

 3  4  5  6  7  8  9  10  11  12  23  26  30  31 0
 6-311+G(2d,p)
 ****
 33  35  36  37  38 0
 6-311+G(2d,p)
 ****
 1  2  13  14  15  16  17  18  19  20  21  22  24  25 0
 3-21G
 ****
 27  28  29  32  34  39  40  41  42  43  44  45  46  47  48  49 0
 3-21G
 ****


