%nproc=1
%NoSave
%Mem=1900MB
#P OB98/GEN NMR

erre ene a

0 1
  C       94.664     106.156     -92.367
  O       95.024     107.401     -92.933
  H       94.737     105.387     -93.142
  H       93.632     106.188     -92.006
  H       95.338     105.892     -91.548
  P       95.148     108.678     -91.971
  C       93.712     109.716     -90.095
  O       93.751     108.822     -91.200
  C       92.403     110.505     -90.113
  O       92.432     111.496     -91.164
  C       91.173     109.648     -90.386
  O       90.797     108.911     -89.239
  C       90.173     110.712     -90.816
  O       89.605     111.372     -89.676
  C       91.073     111.676     -91.624
  N       90.972     111.472     -93.068
  C       90.279     112.446     -93.785
  O       89.740     113.419     -93.257
  N       90.201     112.247     -95.138
  C       90.634     111.141     -95.810
  O       90.459     110.969     -97.012
  C       91.335     110.134     -95.002
  C       91.470     110.344     -93.687
  O       95.644     109.928     -92.617
  O       96.145     108.184     -90.816
  H       88.957     110.752     -89.294
  H       97.023     108.584     -90.953
  H       89.694     112.932     -95.672
  H       91.706     109.250     -95.501
  H       91.979     109.610     -93.073
  H       90.805     112.718     -91.403
  H       89.348     110.294     -91.392
  H       91.362     108.977     -91.232
  H       92.308     111.034     -89.153
  H       94.557     110.411     -90.173
  H       93.807     109.142     -89.168
  P       90.294     107.400     -89.390
  C       88.288     106.240     -90.505
  O       88.775     107.439     -89.906
  O       90.535     106.524     -88.204
  O       91.096     106.858     -90.665
  H       91.652     106.099     -90.402
  H       87.272     106.381     -90.809
  H       88.341     105.440     -89.796
  H       88.886     106.000     -91.359

 6  7  8  9  10  11  12  13  14  15  16  26  31  32  33  34  35 0
 6-311+G(2d,p)
 ****
 36  37 0
 6-311+G(2d,p)
 ****
 1  2  3  4  5  17  18  19  20  21  22  23  24  25 0
 3-21G
 ****
 27  28  29  30  38  39  40  41  42  43  44  45 0
 3-21G
 ****


