%nproc=1
%NoSave
%Mem=1900MB
#P OB98/GEN NMR

erre ene a

0 1
  C      111.329     -51.580    -348.950
  O      110.652     -51.573    -350.187
  P      110.861     -52.748    -351.256
  C      112.789     -51.475    -352.396
  O      112.396     -52.670    -351.733
  C      114.012     -51.735    -353.282
  O      115.080     -52.285    -352.451
  C      113.728     -52.742    -354.414
  O      114.083     -52.282    -355.718
  C      114.451     -53.992    -353.942
  O      114.749     -54.911    -354.977
  C      115.640     -53.395    -353.183
  N      116.293     -54.368    -352.310
  C      116.538     -55.631    -352.839
  O      116.253     -55.976    -353.983
  N      117.081     -56.545    -351.980
  C      117.291     -56.365    -350.645
  O      117.687     -57.258    -349.913
  C      116.978     -55.021    -350.133
  C      116.523     -54.091    -350.979
  O      109.872     -52.779    -352.373
  O      110.861     -54.067    -350.347
  H      115.089     -54.403    -355.737
  H      111.557     -54.096    -349.668
  H      117.262     -57.466    -352.350
  H      117.124     -54.851    -349.077
  H      116.283     -53.089    -350.628
  H      116.390     -52.990    -353.868
  H      113.792     -54.513    -353.233
  H      112.653     -52.953    -354.495
  H      114.345     -50.773    -353.681
  H      113.045     -50.724    -351.643
  H      111.950     -51.080    -352.983
  P      113.186     -52.449    -357.031
  C      114.703     -54.063    -358.396
  O      113.503     -53.881    -357.673
  O      113.231     -51.307    -357.986
  O      111.703     -52.637    -356.449
  H      111.054     -52.300    -357.092
  H      114.545     -54.839    -359.147
  H      115.491     -54.390    -357.711
  H      115.013     -53.141    -358.898
  H      111.052     -50.713    -348.387
  H      112.385     -51.572    -349.121
  H      111.063     -52.460    -348.403

 3  4  5  6  7  8  9  10  11  12  13  23  28  29  30  31  32 0
 6-311+G(2d,p)
 ****
 33  34 0
 6-311+G(2d,p)
 ****
 1  2  14  15  16  17  18  19  20  21  22  24  25  26  27 0
 3-21G
 ****
 35  36  37  38  39  40  41  42  43  44  45 0
 3-21G
 ****


