%nproc=1
%NoSave
%Mem=1900MB
#P OB98/GEN NMR

erre ene a

0 1
  C       29.414     -55.648     259.131
  O       29.816     -55.189     257.839
  P       31.347     -54.724     257.703
  C       31.325     -54.975     255.122
  O       31.537     -54.114     256.229
  C       29.835     -55.068     254.774
  O       29.245     -53.736     254.683
  C       29.558     -55.775     253.437
  O       28.329     -56.495     253.600
  C       29.374     -54.601     252.490
  O       28.748     -54.959     251.269
  C       28.596     -53.656     253.395
  N       25.697     -50.116     251.141
  C       25.454     -51.401     251.477
  N       26.283     -52.283     252.074
  C       27.472     -51.711     252.331
  C       27.868     -50.414     252.045
  C       26.915     -49.593     251.418
  N       27.158     -48.289     251.053
  N       29.181     -50.204     252.441
  C       29.579     -51.382     252.887
  N       28.564     -52.294     252.916
  O       32.154     -56.105     257.655
  O       31.803     -53.836     258.813
  H       27.894     -55.401     251.451
  H       32.532     -56.310     258.529
  H       24.464     -51.772     251.229
  H       30.586     -51.625     253.199
  H       27.554     -53.976     253.529
  H       30.356     -54.179     252.243
  H       30.345     -56.472     253.137
  H       29.323     -55.596     255.588
  H       31.701     -55.977     255.348
  H       26.413     -47.781     250.604
  H       28.057     -47.866     251.231
  H       31.909     -54.614     254.270
  P       28.379     -58.098     253.691
  C       26.304     -58.579     255.120
  O       26.841     -58.540     253.812
  O       28.878     -58.290     255.202
  O       29.219     -58.792     252.674
  H       28.347     -57.756     255.819
  H       25.239     -58.814     255.055
  H       26.424     -57.609     255.608
  H       26.803     -59.358     255.705
  H       28.382     -55.930     259.104
  H       29.551     -54.864     259.847
  H       30.007     -56.494     259.410

 3  4  5  6  7  8  9  10  11  12  22  25  29  30  31  32 0
 6-311+G(2d,p)
 ****
 33  36  37 0
 6-311+G(2d,p)
 ****
 1  2  13  14  15  16  17  18  19  20  21  23  24  26 0
 3-21G
 ****
 27  28  34  35  38  39  40  41  42  43  44  45  46  47  48 0
 3-21G
 ****


