%nproc=1
%NoSave
%Mem=1900MB
#P OB98/GEN NMR

erre ene a

0 1
  C     -204.612    -310.443    -228.716
  O     -204.667    -309.504    -227.662
  H     -203.878    -311.212    -228.462
  H     -204.309    -309.961    -229.649
  H     -205.587    -310.925    -228.845
  P     -205.593    -308.209    -227.842
  C     -203.892    -306.964    -226.345
  O     -205.258    -307.231    -226.616
  C     -203.747    -306.026    -225.138
  O     -204.192    -304.692    -225.521
  C     -204.582    -306.451    -223.915
  O     -203.884    -306.003    -222.747
  C     -205.850    -305.644    -224.124
  O     -206.641    -305.616    -222.966
  C     -205.258    -304.319    -224.619
  N     -206.247    -303.470    -225.261
  C     -205.949    -302.106    -225.319
  O     -204.897    -301.677    -224.829
  N     -206.851    -301.256    -225.901
  C     -207.983    -301.713    -226.326
  N     -208.844    -300.814    -226.877
  C     -208.368    -303.140    -226.230
  C     -207.458    -303.954    -225.698
  O     -207.048    -308.472    -228.053
  O     -204.949    -307.446    -229.096
  H     -206.846    -306.530    -222.659
  H     -205.513    -307.578    -229.885
  H     -209.336    -303.469    -226.582
  H     -207.646    -305.017    -225.586
  H     -204.805    -303.763    -223.786
  H     -206.466    -306.094    -224.911
  H     -204.750    -307.530    -223.869
  H     -202.683    -305.944    -224.882
  H     -208.546    -299.847    -226.913
  H     -203.466    -306.492    -227.239
  H     -209.765    -301.055    -227.221
  H     -203.353    -307.898    -226.150
  P     -203.197    -307.007    -221.704
  C     -203.461    -305.164    -219.915
  O     -202.618    -306.171    -220.464
  O     -202.208    -307.942    -222.326
  O     -204.411    -307.831    -221.054
  H     -204.099    -308.727    -220.821
  H     -202.960    -304.685    -219.100
  H     -204.367    -305.611    -219.563
  H     -203.689    -304.440    -220.669

 6  7  8  9  10  11  12  13  14  15  16  26  30  31  32  33  35 0
 6-311+G(2d,p)
 ****
 37  38 0
 6-311+G(2d,p)
 ****
 1  2  3  4  5  17  18  19  20  21  22  23  24  25 0
 3-21G
 ****
 27  28  29  34  36  39  40  41  42  43  44  45  46 0
 3-21G
 ****


