%nproc=1
%NoSave
%Mem=1900MB
#P OB98/GEN NMR

erre ene a

0 1
  C     -113.876    -307.683    1171.192
  O     -112.997    -308.793    1171.167
  P     -111.420    -308.477    1171.219
  C     -110.920    -310.918    1171.933
  O     -110.650    -309.864    1171.008
  C     -111.033    -312.250    1171.176
  O     -109.904    -312.402    1170.266
  C     -110.995    -313.511    1172.079
  O     -112.230    -313.705    1172.730
  C     -110.641    -314.574    1171.039
  O     -111.821    -314.943    1170.289
  C     -109.649    -313.821    1170.114
  N     -104.854    -314.133    1168.333
  C     -106.027    -313.875    1167.709
  N     -107.266    -313.817    1168.249
  C     -107.221    -314.083    1169.570
  C     -106.095    -314.380    1170.323
  C     -104.866    -314.388    1169.666
  N     -103.667    -314.653    1170.291
  N     -106.425    -314.598    1171.628
  C     -107.739    -314.439    1171.677
  N     -108.256    -314.089    1170.461
  O     -111.147    -308.124    1172.768
  O     -110.980    -307.356    1170.322
  H     -111.553    -315.646    1169.669
  H     -110.458    -307.432    1172.855
  H     -105.952    -313.673    1166.657
  H     -108.352    -314.505    1172.576
  H     -109.776    -314.066    1169.053
  H     -110.228    -315.474    1171.488
  H     -110.165    -313.417    1172.798
  H     -111.948    -312.244    1170.586
  H     -111.877    -310.741    1172.444
  H     -102.850    -314.782    1169.705
  H     -103.683    -314.980    1171.250
  H     -110.114    -310.966    1172.672
  P     -112.184    -314.349    1174.213
  C     -114.518    -313.281    1174.161
  O     -113.697    -314.307    1174.697
  O     -111.509    -313.151    1175.056
  O     -111.475    -315.669    1174.308
  H     -111.919    -312.297    1174.900
  H     -115.509    -313.403    1174.506
  H     -114.520    -313.320    1173.066
  H     -114.127    -312.283    1174.488
  H     -114.888    -308.028    1171.153
  H     -113.681    -307.054    1170.349
  H     -113.724    -307.128    1172.094

 3  4  5  6  7  8  9  10  11  12  22  25  29  30  31  32 0
 6-311+G(2d,p)
 ****
 33  36  37 0
 6-311+G(2d,p)
 ****
 1  2  13  14  15  16  17  18  19  20  21  23  24  26 0
 3-21G
 ****
 27  28  34  35  38  39  40  41  42  43  44  45  46  47  48 0
 3-21G
 ****


