%nproc=1
%NoSave
%Mem=1900MB
#P OB98/GEN NMR

erre ene a

0 1
  C     -516.395    -134.701    -509.817
  O     -516.067    -133.446    -509.262
  H     -517.408    -134.969    -509.506
  H     -515.704    -135.463    -509.453
  H     -516.358    -134.658    -510.911
  P     -514.610    -132.867    -509.593
  C     -515.456    -131.489    -511.622
  O     -514.600    -132.531    -511.165
  C     -515.307    -131.294    -513.136
  O     -513.896    -131.065    -513.445
  C     -515.771    -132.503    -513.962
  O     -516.408    -132.025    -515.154
  C     -514.474    -133.186    -514.335
  O     -514.603    -133.994    -515.499
  C     -513.554    -131.978    -514.505
  N     -509.253    -131.969    -517.120
  C     -510.502    -131.467    -517.447
  N     -510.637    -130.882    -518.658
  N     -511.531    -131.544    -516.655
  C     -511.254    -132.136    -515.468
  C     -510.077    -132.677    -515.029
  C     -508.940    -132.603    -515.926
  O     -507.814    -133.043    -515.708
  N     -510.205    -133.212    -513.770
  C     -511.472    -133.004    -513.451
  N     -512.154    -132.350    -514.447
  O     -513.662    -134.154    -509.494
  O     -514.139    -131.750    -508.710
  H     -514.994    -133.442    -516.210
  H     -512.761    -133.905    -509.204
  H     -508.490    -131.889    -517.776
  H     -511.945    -133.302    -512.520
  H     -513.708    -131.465    -515.460
  H     -514.126    -133.827    -513.510
  H     -509.870    -130.755    -519.302
  H     -516.452    -133.162    -513.423
  H     -511.539    -130.499    -518.908
  H     -515.839    -130.385    -513.429
  H     -515.185    -130.559    -511.104
  H     -516.497    -131.738    -511.383
  P     -517.987    -132.274    -515.310
  C     -518.768    -129.794    -515.353
  O     -518.767    -131.030    -514.647
  O     -518.256    -133.468    -514.277
  O     -518.411    -132.639    -516.692
  H     -518.445    -134.288    -514.776
  H     -519.320    -129.066    -514.796
  H     -519.224    -129.931    -516.311
  H     -517.761    -129.456    -515.482

 6  7  8  9  10  11  12  13  14  15  26  29  33  34 0
 6-311+G(2d,p)
 ****
 36  38  39  40  41 0
 6-311+G(2d,p)
 ****
 1  2  3  4  5  16  17  18  19  20  21  22  23  24  25 0
 3-21G
 ****
 27  28  30  31  32  35  37  42  43  44  45  46  47 0
 3-21G
 ****
 48  49 0
 3-21G
 ****


