%nproc=1
%NoSave
%Mem=1900MB
#P OB98/GEN NMR

erre ene a

0 1
  C     -245.513     283.967    -195.543
  O     -244.407     283.923    -196.431
  P     -244.626     283.314    -197.896
  C     -244.931     285.532    -199.228
  O     -245.535     284.351    -198.721
  C     -245.129     285.628    -200.745
  O     -246.509     285.279    -201.072
  C     -244.863     287.025    -201.321
  O     -244.314     286.850    -202.641
  C     -246.262     287.609    -201.429
  O     -246.346     288.700    -202.331
  C     -247.042     286.364    -201.860
  N     -248.485     286.502    -201.679
  C     -249.177     287.284    -202.600
  O     -248.641     287.859    -203.553
  N     -250.517     287.446    -202.372
  C     -251.200     286.989    -201.282
  O     -252.378     287.270    -201.069
  C     -250.425     286.176    -200.335
  C     -249.123     285.969    -200.572
  O     -245.600     282.070    -197.636
  O     -243.366     282.906    -198.593
  H     -247.247     289.065    -202.271
  H     -245.094     281.239    -197.625
  H     -251.032     288.000    -203.034
  H     -250.944     285.778    -199.470
  H     -248.518     285.382    -199.885
  H     -246.831     286.128    -202.912
  H     -246.584     287.963    -200.440
  H     -244.192     287.636    -200.707
  H     -244.482     284.888    -201.225
  H     -243.864     285.513    -199.005
  H     -245.361     286.408    -198.728
  P     -243.334     287.994    -203.200
  C     -241.420     286.916    -201.782
  O     -242.097     288.086    -202.187
  O     -244.195     289.309    -202.884
  O     -242.995     287.836    -204.652
  H     -244.604     289.285    -202.004
  H     -241.378     286.171    -202.583
  H     -241.925     286.485    -200.916
  H     -240.394     287.179    -201.494
  H     -245.207     284.398    -194.613
  H     -245.875     282.974    -195.374
  H     -246.292     284.562    -195.972

 3  4  5  6  7  8  9  10  11  12  13  23  28  29  30  31  32 0
 6-311+G(2d,p)
 ****
 33  34 0
 6-311+G(2d,p)
 ****
 1  2  14  15  16  17  18  19  20  21  22  24  25  26 0
 3-21G
 ****
 27  35  36  37  38  39  40  41  42  43  44  45 0
 3-21G
 ****


