%nproc=1
%NoSave
%Mem=1900MB
#P OB98/GEN NMR

erre ene a

0 1
  C       44.176     -37.832      43.032
  O       43.947     -38.946      43.884
  P       45.107     -40.046      44.005
  C       43.770     -41.599      42.425
  O       45.011     -40.957      42.684
  C       43.989     -42.980      41.816
  O       42.716     -43.680      41.765
  C       44.561     -42.958      40.389
  O       45.585     -43.958      40.271
  C       43.387     -43.396      39.529
  O       43.813     -43.992      38.307
  C       42.682     -44.354      40.489
  N       39.811     -47.662      37.973
  C       41.132     -47.757      38.359
  N       41.797     -48.867      37.968
  N       41.752     -46.845      39.061
  C       40.955     -45.803      39.409
  C       39.631     -45.600      39.095
  C       38.975     -46.589      38.264
  O       37.834     -46.519      37.815
  N       39.162     -44.433      39.642
  C       40.200     -43.928      40.280
  N       41.325     -44.697      40.131
  O       44.570     -41.004      45.168
  O       46.460     -39.512      44.324
  H       44.334     -44.781      38.542
  H       45.235     -41.062      45.881
  H       39.386     -48.385      37.416
  H       40.192     -42.998      40.837
  H       43.250     -45.291      40.584
  H       42.764     -42.526      39.296
  H       41.370     -49.623      37.457
  H       44.958     -41.984      40.080
  H       42.760     -48.964      38.261
  H       44.643     -43.557      42.484
  H       43.184     -40.988      41.728
  H       43.215     -41.688      43.367
  P       47.089     -43.412      40.126
  C       47.032     -43.358      37.519
  O       47.133     -42.628      38.730
  O       47.939     -44.740      39.848
  O       47.576     -42.656      41.317
  H       48.868     -44.612      40.117
  H       46.766     -44.409      37.692
  H       47.992     -43.320      36.998
  H       46.266     -42.900      36.889
  H       43.322     -37.187      43.051
  H       44.341     -38.176      42.032
  H       45.037     -37.295      43.371

 3  4  5  6  7  8  9  10  11  12  23  26  30  31  33  0
 6-311+G(2d,p)
 ****
 35  36  37  38 0
 6-311+G(2d,p)
 ****
 1  2  13  14  15  16  17  18  19  20  21  22  24  25  27  28  29 0
 3-21G
 ****
 32  34  39  40  41  42  43  44  45  46  47  48  49 0
 3-21G
 ****


