%nproc=1
%NoSave
%Mem=1900MB
#P OB98/GEN NMR

erre ene a

0 1
  C      212.053     -99.359    -236.113
  O      211.335     -98.147    -236.240
  H      212.010     -99.895    -237.064
  H      211.603     -99.981    -235.335
  H      213.100     -99.156    -235.870
  P      211.294     -97.202    -234.946
  C      209.223     -95.808    -235.703
  O      210.616     -95.828    -235.421
  C      208.928     -94.857    -236.870
  O      209.565     -95.379    -238.072
  C      207.430     -94.708    -237.187
  O      207.226     -93.398    -237.747
  C      207.239     -95.760    -238.268
  O      206.014     -95.580    -238.939
  C      208.525     -95.540    -239.063
  N      207.393     -97.794    -243.514
  C      206.925     -96.667    -242.930
  N      207.284     -96.123    -241.751
  C      208.245     -96.856    -241.162
  C      208.826     -98.019    -241.636
  C      208.358     -98.497    -242.874
  N      208.826     -99.648    -243.466
  N      209.779     -98.487    -240.749
  C      209.773     -97.618    -239.757
  N      208.857     -96.622    -239.960
  O      212.831     -96.813    -234.726
  O      210.690     -97.813    -233.726
  H      205.260     -95.675    -238.319
  H      213.234     -97.415    -234.071
  H      206.158     -96.133    -243.487
  H      210.395     -97.669    -238.872
  H      208.484     -94.618    -239.655
  H      207.216     -96.765    -237.833
  H      206.786     -94.837    -236.314
  H      209.390     -93.884    -236.664
  H      208.692     -95.473    -234.806
  H      208.890     -96.817    -235.963
  H      208.428     -99.928    -244.348
  H      209.533    -100.190    -242.992
  P      205.813     -92.664    -237.524
  C      205.855     -91.892    -240.026
  O      205.627     -91.552    -238.666
  O      206.105     -91.763    -236.228
  O      204.645     -93.564    -237.287
  H      205.277     -91.620    -235.735
  H      205.685     -91.034    -240.642
  H      205.186     -92.676    -240.315
  H      206.866     -92.223    -240.146

 6  7  8  9  10  11  12  13  14  15  25  28  32  33  34  35 0
 6-311+G(2d,p)
 ****
 36  37  40 0
 6-311+G(2d,p)
 ****
 1  2  3  4  5  16  17  18  19  20  21  22  23  24 0
 3-21G
 ****
 26  27  29  30  31  38  39 41  42  43  44  45  46  47  48 0
 3-21G
 ****


