%nproc=1
%NoSave
%Mem=1900MB
#P OB98/GEN NMR

erre ene a

0 1
  C      693.708    -894.040    -211.557
  O      695.043    -894.120    -211.096
  H      693.705    -894.150    -212.650
  H      693.258    -893.080    -211.297
  H      693.118    -894.860    -211.129
  P      695.323    -893.870    -209.535
  C      695.072    -896.410    -209.132
  O      694.611    -895.110    -208.804
  C      694.812    -897.370    -207.976
  O      695.421    -896.900    -206.753
  C      693.334    -897.560    -207.620
  O      692.629    -898.370    -208.550
  C      693.474    -898.230    -206.267
  O      693.845    -899.600    -206.433
  C      694.634    -897.400    -205.648
  N      694.181    -896.320    -204.789
  C      693.773    -896.670    -203.491
  O      693.812    -897.830    -203.118
  N      693.303    -895.680    -202.662
  C      693.222    -894.460    -203.091
  N      692.707    -893.530    -202.239
  C      693.656    -894.040    -204.440
  C      694.110    -895.020    -205.225
  O      694.958    -892.520    -209.010
  O      696.870    -894.230    -209.348
  H      693.894    -900.000    -205.548
  H      697.094    -894.090    -208.397
  H      693.556    -893.020    -204.750
  H      694.433    -894.790    -206.244
  H      695.289    -898.060    -205.056
  H      692.548    -898.210    -205.680
  H      692.842    -896.600    -207.480
  H      695.288    -898.340    -208.214
  H      692.391    -893.860    -201.336
  H      696.141    -896.350    -209.361
  H      692.363    -892.640    -202.589
  H      694.539    -896.790    -210.020
  P      691.027    -898.450    -208.409
  C      690.080    -897.280    -210.542
  O      690.417    -897.170    -209.167
  O      690.794    -898.120    -206.859
  O      690.414    -899.750    -208.829
  H      690.737    -898.940    -206.339
  H      689.690    -896.346    -210.890
  H      689.341    -898.044    -210.668
  H      690.954    -897.533    -211.104

 6  7  8  9  10  11  12  13  14  15  16  26  30  31  32  33  35 0
 6-311+G(2d,p)
 ****
 37  38 0
 6-311+G(2d,p)
 ****
 1  2  3  4  5  17  18  19  20  21  22  23  24  25 0
 3-21G
 ****
 27  28  29  34  36  39  40  41  42  43  44  45  46 0
 3-21G
 ****


