%nproc=1
%NoSave
%Mem=1900MB
#P OB98/GEN NMR

erre ene a

0 1
  C      -25.455     325.004    -396.916
  O      -24.899     326.238    -396.519
  H      -26.186     325.189    -397.708
  H      -25.961     324.536    -396.066
  H      -24.685     324.328    -397.301
  P      -23.560     326.234    -395.642
  C      -24.234     328.351    -394.324
  O      -23.284     327.753    -395.190
  C      -24.104     329.880    -394.323
  O      -22.786     330.246    -393.843
  C      -24.225     330.420    -395.751
  O      -24.745     331.747    -395.778
  C      -22.780     330.452    -396.229
  O      -22.566     331.352    -397.312
  C      -22.058     330.832    -394.936
  N      -17.284     331.591    -396.556
  C      -18.450     332.210    -396.952
  N      -18.331     333.142    -397.925
  N      -19.629     331.933    -396.455
  C      -19.604     330.926    -395.544
  C      -18.519     330.221    -395.084
  C      -17.214     330.563    -395.615
  O      -16.146     330.034    -395.316
  N      -18.885     329.260    -394.178
  C      -20.195     329.380    -394.088
  N      -20.675     330.392    -394.891
  O      -22.399     325.976    -396.720
  O      -23.509     325.225    -394.533
  H      -21.651     331.235    -397.611
  H      -21.623     325.580    -396.292
  H      -16.399     331.854    -396.956
  H      -20.837     328.781    -393.458
  H      -22.058     331.923    -394.802
  H      -22.521     329.450    -396.583
  H      -17.481     333.265    -398.459
  H      -24.844     329.782    -396.382
  H      -19.186     333.391    -398.425
  H      -24.829     330.321    -393.637
  H      -24.048     327.954    -393.319
  H      -25.245     328.052    -394.606
  P      -26.237     331.941    -396.331
  C      -25.568     333.636    -398.219
  O      -26.311     333.378    -397.042
  O      -27.113     332.122    -394.999
  O      -26.723     330.813    -397.172
  H      -27.626     331.305    -394.826
  H      -25.746     334.641    -398.540
  H      -25.871     332.956    -398.988
  H      -24.525     333.506    -398.018

 6  7  8  9  10  11  12  13  14  15  26  29  33  34 0
 6-311+G(2d,p)
 ****
 36  38  39  40  41 0
 6-311+G(2d,p)
 ****
 1  2  3  4  5  16  17  18  19  20  21  22  23  24  25 0
 3-21G
 ****
 27  28  30  31  32  35  37  42  43  44  45  46  47 0
 3-21G
 ****
 48  49 0
 3-21G
 ****


