%nproc=1
%NoSave
%Mem=1900MB
#P OB98/GEN NMR

erre ene a

0 1
  C       31.349      32.182    -194.269
  O       31.161      31.098    -193.386
  H       31.484      31.788    -195.280
  H       32.247      32.737    -193.984
  H       30.486      32.854    -194.267
  P       30.510      31.378    -191.951
  C       28.243      30.584    -192.893
  O       28.932      31.590    -192.162
  C       27.142      29.926    -192.060
  O       26.143      30.903    -191.693
  C       26.401      28.836    -192.834
  O       27.018      27.562    -192.826
  C       25.058      28.798    -192.110
  O       25.121      27.943    -190.957
  C       24.859      30.256    -191.688
  N       21.526      34.094    -192.196
  C       22.208      33.678    -191.069
  N       21.920      34.332    -189.923
  N       23.074      32.700    -191.071
  C       23.189      32.078    -192.268
  C       22.556      32.391    -193.451
  C       21.638      33.512    -193.451
  O       21.004      33.916    -194.421
  N       22.926      31.535    -194.461
  C       23.721      30.665    -193.873
  N       23.932      30.967    -192.548
  O       31.012      32.859    -191.593
  O       30.888      30.407    -190.875
  H       24.245      27.934    -190.532
  H       31.038      32.976    -190.626
  H       20.892      34.871    -192.143
  H       24.188      29.817    -194.363
  H       24.470      30.327    -190.665
  H       24.264      28.404    -192.752
  H       21.177      35.010    -189.849
  H       26.225      29.154    -193.867
  H       22.191      33.892    -189.041
  H       27.574      29.540    -191.130
  H       28.988      29.839    -193.181
  H       27.828      31.001    -193.815
  P       26.925      26.619    -194.116
  C       29.200      27.388    -195.120
  O       27.798      27.311    -195.267
  O       25.415      26.831    -194.602
  O       27.231      25.181    -193.868
  H       24.848      26.114    -194.260
  H       29.622      27.876    -195.973
  H       29.605      26.401    -195.038
  H       29.436      27.945    -194.237

 6  7  8  9  10  11  12  13  14  15  26  29  33  34 0
 6-311+G(2d,p)
 ****
 36  38  39  40  41 0
 6-311+G(2d,p)
 ****
 1  2  3  4  5  16  17  18  19  20  21  22  23  24  25 0
 3-21G
 ****
 27  28  30  31  32  35  37  42  43  44  45  46  47 0
 3-21G
 ****
 48  49 0
 3-21G
 ****


