%nproc=1
%NoSave
%Mem=1900MB
#P OB98/GEN NMR

erre ene a

0 1
  C      312.508     244.064     -57.921
  O      313.341     243.128     -58.586
  P      313.315     241.608     -58.074
  C      313.912     240.720     -60.439
  O      314.257     240.769     -59.060
  C      314.796     239.733     -61.203
  O      316.081     240.359     -61.464
  C      315.057     238.422     -60.465
  O      315.084     237.364     -61.436
  C      316.455     238.603     -59.898
  O      317.092     237.348     -59.661
  C      317.105     239.467     -60.986
  N      318.259     240.208     -60.484
  C      319.371     239.463     -60.064
  O      319.307     238.225     -60.063
  N      320.485     240.112     -59.613
  C      320.467     241.408     -59.491
  N      321.593     242.016     -59.038
  C      319.275     242.234     -59.794
  C      318.230     241.572     -60.301
  O      311.835     241.120     -58.469
  O      313.584     241.441     -56.609
  H      316.555     236.847     -59.015
  H      311.496     240.469     -57.822
  H      319.299     243.303     -59.629
  H      317.315     242.105     -60.576
  H      317.439     238.852     -61.825
  H      316.398     239.143     -58.943
  H      314.298     238.196     -59.706
  H      314.326     239.539     -62.177
  H      322.393     241.432     -58.822
  H      314.046     241.714     -60.875
  H      321.670     243.016     -58.907
  H      312.857     240.440     -60.530
  P      314.358     235.979     -61.067
  C      313.874     235.585     -63.560
  O      314.483     235.081     -62.383
  O      312.810     236.419     -61.114
  O      314.685     235.338     -59.760
  H      312.247     235.667     -60.843
  H      314.147     234.946     -64.400
  H      314.207     236.604     -63.754
  H      312.770     235.575     -63.452
  H      312.629     245.029     -58.367
  H      312.780     244.112     -56.887
  H      311.487     243.757     -58.007

 3  4  5  6  7  8  9  10  11  12  13  21  23  27  28  29  30  32 0
 6-311+G(2d,p)
 ****
 34  35 0
 6-311+G(2d,p)
 ****
 1  2  14  15  16  17  18  19  20  22  24  25  26 0
 3-21G
 ****
 31  33  36  37  38  39  40  41  42  43  44  45  46 0
 3-21G
 ****


