%nproc=1
%NoSave
%Mem=1900MB
#P OB98/GEN NMR

erre ene a

0 1
  C      -55.144     254.466    -120.076
  O      -55.560     253.143    -119.771
  P      -54.584     252.225    -118.887
  C      -54.939     250.144    -120.395
  O      -54.013     251.081    -119.858
  C      -54.445     248.710    -120.203
  O      -55.491     247.791    -120.622
  C      -53.186     248.357    -121.001
  O      -52.438     247.413    -120.225
  C      -53.742     247.659    -122.227
  O      -52.770     246.838    -122.869
  C      -54.914     246.904    -121.607
  N      -56.743     243.089    -124.477
  C      -55.746     243.128    -123.567
  N      -55.317     244.185    -122.841
  C      -56.033     245.283    -123.135
  C      -57.053     245.400    -124.064
  C      -57.414     244.230    -124.756
  N      -58.435     244.184    -125.677
  N      -57.528     246.696    -124.104
  C      -56.806     247.349    -123.214
  N      -55.909     246.531    -122.588
  O      -55.606     251.437    -117.940
  O      -53.565     252.964    -118.093
  H      -53.181     246.436    -123.659
  H      -55.501     251.737    -117.016
  H      -55.227     242.189    -123.392
  H      -56.894     248.405    -122.991
  H      -54.590     245.992    -121.089
  H      -54.090     248.404    -122.954
  H      -52.561     249.221    -121.253
  H      -54.281     248.541    -119.132
  H      -55.049     250.335    -121.465
  H      -58.721     243.282    -126.027
  H      -59.062     244.979    -125.752
  H      -55.913     250.275    -119.913
  P      -50.888     247.736    -119.979
  C      -49.889     246.073    -121.698
  O      -50.128     247.424    -121.351
  O      -50.413     246.559    -119.002
  O      -50.633     249.084    -119.383
  H      -49.668     246.865    -118.452
  H      -49.938     245.974    -122.788
  H      -50.627     245.398    -121.249
  H      -48.890     245.786    -121.359
  H      -55.894     254.949    -120.667
  H      -54.225     254.434    -120.623
  H      -54.999     255.013    -119.168

 3  4  5  6  7  8  9  10  11  12  22  25  29  30  31  32 0
 6-311+G(2d,p)
 ****
 33  36  37 0
 6-311+G(2d,p)
 ****
 1  2  13  14  15  16  17  18  19  20  21  23  24  26 0
 3-21G
 ****
 27  28  34  35  38  39  40  41  42  43  44  45  46  47  48 0
 3-21G
 ****


