%nproc=1
%NoSave
%Mem=1900MB
#P OB98/GEN NMR

erre ene a

0 1
  C      499.871    -628.699      38.451
  O      499.668    -627.954      39.640
  H      499.681    -628.045      37.599
  H      499.182    -629.539      38.409
  H      500.903    -629.064      38.398
  P      500.005    -628.695      41.026
  C      502.322    -627.631      41.557
  O      501.613    -628.772      41.112
  C      503.810    -627.967      41.709
  O      503.948    -628.959      42.763
  C      504.425    -628.554      40.432
  O      505.755    -628.086      40.301
  C      504.429    -630.055      40.704
  O      505.384    -630.771      39.939
  C      504.703    -630.075      42.212
  N      504.277    -631.335      42.829
  C      504.975    -632.487      42.472
  O      505.958    -632.502      41.733
  N      504.504    -633.659      42.995
  C      503.417    -633.794      43.814
  O      503.034    -634.865      44.249
  C      502.724    -632.542      44.164
  C      503.174    -631.394      43.653
  O      499.572    -630.210      40.749
  O      499.338    -628.127      42.235
  H      498.654    -630.357      40.991
  H      505.431    -631.685      40.308
  H      505.000    -634.497      42.751
  H      501.842    -632.614      44.788
  H      502.671    -630.452      43.868
  H      505.753    -629.893      42.412
  H      503.445    -630.482      40.480
  H      503.858    -628.313      39.530
  H      504.337    -627.078      42.033
  H      501.913    -627.312      42.530
  H      502.189    -626.818      40.832
  P      506.203    -627.431      38.893
  C      506.826    -625.014      39.678
  O      505.879    -625.861      39.036
  O      505.038    -627.981      37.947
  O      507.592    -627.779      38.498
  H      504.161    -628.033      38.372
  H      506.457    -624.010      39.688
  H      507.753    -625.048      39.146
  H      506.979    -625.348      40.683

 6  7  8  9  10  11  12  13  14  15  16  27  31  32  33  34  35 0
 6-311+G(2d,p)
 ****
 36  37 0
 6-311+G(2d,p)
 ****
 1  2  3  4  5  17  18  19  20  21  22  23  24  25 0
 3-21G
 ****
 26  28  29  30  38  39  40  41  42  43  44  45 0
 3-21G
 ****


