%nproc=1
%NoSave
%Mem=1900MB
#P OB98/GEN NMR

erre ene a

0 1
  C      129.152    -317.277    -352.168
  O      129.888    -317.454    -350.974
  P      130.554    -318.891    -350.714
  C      129.657    -321.315    -350.374
  O      129.359    -319.928    -350.464
  C      128.365    -322.103    -350.144
  O      127.495    -321.994    -351.291
  C      128.592    -323.596    -349.943
  O      129.032    -323.883    -348.626
  C      127.213    -324.163    -350.258
  O      126.351    -324.081    -349.112
  C      126.728    -323.213    -351.374
  N      126.812    -323.819    -352.699
  C      125.843    -324.774    -352.993
  O      124.976    -325.117    -352.190
  N      125.930    -325.352    -354.230
  C      126.902    -325.115    -355.162
  O      126.957    -325.708    -356.232
  C      127.918    -324.119    -354.780
  C      127.829    -323.532    -353.584
  O      131.239    -318.743    -349.276
  O      131.533    -319.319    -351.755
  H      126.704    -324.707    -348.450
  H      132.070    -319.257    -349.250
  H      125.223    -326.026    -354.473
  H      128.700    -323.909    -355.495
  H      128.576    -322.806    -353.282
  H      125.685    -322.924    -351.194
  H      127.254    -325.214    -350.551
  H      129.311    -323.971    -350.685
  H      127.847    -321.673    -349.277
  H      130.346    -321.486    -349.543
  H      130.143    -321.639    -351.301
  P      129.730    -325.311    -348.385
  C      128.710    -327.638    -348.992
  O      128.529    -326.368    -348.406
  O      130.151    -325.181    -346.846
  O      130.859    -325.573    -349.323
  H      129.522    -324.637    -346.339
  H      129.724    -328.011    -348.829
  H      128.515    -327.573    -350.064
  H      128.000    -328.338    -348.545
  H      128.769    -316.279    -352.206
  H      128.339    -317.972    -352.192
  H      129.791    -317.447    -353.009

 3  4  5  6  7  8  9  10  11  12  13  23  28  29  30  31  32 0
 6-311+G(2d,p)
 ****
 33  34 0
 6-311+G(2d,p)
 ****
 1  2  14  15  16  17  18  19  20  21  22  24  25  26 0
 3-21G
 ****
 27  35  36  37  38  39  40  41  42  43  44  45 0
 3-21G
 ****


