%nproc=1
%NoSave
%Mem=1900MB
#P OB98/GEN NMR

erre ene a

0 1
  C      143.381     441.530    -147.473
  O      142.949     442.721    -146.838
  H      142.555     440.812    -147.468
  H      144.227     441.103    -146.923
  H      143.671     441.733    -148.509
  P      143.949     443.970    -146.887
  C      145.159     443.584    -144.586
  O      145.241     443.584    -146.004
  C      146.465     443.075    -143.984
  O      146.655     441.671    -144.250
  C      147.707     443.725    -144.575
  O      147.868     445.062    -144.176
  C      148.790     442.784    -144.051
  O      149.101     443.078    -142.684
  C      148.083     441.410    -144.171
  N      148.555     440.641    -145.316
  C      149.806     440.018    -145.161
  O      150.425     440.141    -144.102
  N      150.325     439.312    -146.215
  C      149.648     439.208    -147.318
  N      150.217     438.502    -148.332
  C      148.318     439.821    -147.517
  C      147.842     440.518    -146.487
  O      143.206     445.051    -145.971
  O      144.301     444.457    -148.257
  H      149.687     442.361    -142.375
  H      142.974     444.716    -145.086
  H      147.787     439.698    -148.454
  H      146.873     440.996    -146.551
  H      148.247     440.813    -143.265
  H      149.720     442.874    -144.618
  H      147.694     443.636    -145.673
  H      146.421     443.212    -142.899
  H      151.141     438.118    -148.165
  H      144.314     442.974    -144.244
  H      149.804     438.386    -149.243
  H      144.970     444.612    -144.261
  P      148.827     446.055    -144.998
  C      150.872     445.873    -143.443
  O      150.335     445.556    -144.713
  O      148.603     447.502    -144.762
  O      148.604     445.598    -146.523
  H      148.829     444.669    -146.713
  H      151.870     445.493    -143.373
  H      150.267     445.431    -142.679
  H      150.885     446.935    -143.317

 6  7  8  9  10  11  12  13  14  15  16  26  30  31  32  33  35 0
 6-311+G(2d,p)
 ****
 37  38 0
 6-311+G(2d,p)
 ****
 1  2  3  4  5  17  18  19  20  21  22  23  24  25 0
 3-21G
 ****
 27  28  29  34  36  39  40  41  42  43  44  45  46 0
 3-21G
 ****


