%nproc=1
%NoSave
%Mem=1900MB
#P OB98/GEN NMR

erre ene a

0 1
  C     -117.200     -68.260     364.726
  O     -118.393     -67.516     364.601
  H     -117.425     -69.314     364.547
  H     -116.806     -68.153     365.740
  H     -116.448     -67.935     364.003
  P     -118.294     -65.937     364.360
  C     -118.009     -65.844     366.925
  O     -117.656     -65.267     365.675
  C     -118.228     -64.778     367.999
  O     -117.152     -63.815     367.953
  C     -119.528     -63.997     367.793
  O     -120.673     -64.593     368.382
  C     -119.203     -62.660     368.457
  O     -119.514     -62.689     369.862
  C     -117.691     -62.517     368.246
  N     -115.528     -58.076     366.926
  C     -115.802     -58.566     368.192
  N     -115.494     -57.746     369.221
  N     -116.345     -59.734     368.406
  C     -116.689     -60.395     367.279
  C     -116.486     -60.002     365.972
  C     -115.821     -58.735     365.742
  O     -115.539     -58.265     364.642
  N     -117.004     -60.911     365.083
  C     -117.598     -61.805     365.853
  N     -117.362     -61.575     367.190
  O     -119.824     -65.453     364.436
  O     -117.674     -65.520     363.059
  H     -119.330     -61.802     370.229
  H     -119.951     -64.685     363.852
  H     -115.084     -57.180     366.824
  H     -118.163     -62.658     365.496
  H     -117.192     -62.163     369.157
  H     -119.794     -61.852     368.021
  H     -115.156     -56.806     369.109
  H     -119.706     -63.812     366.728
  H     -115.851     -57.986     370.151
  H     -118.195     -65.249     368.992
  H     -117.183     -66.499     367.210
  H     -118.901     -66.467     366.816
  P     -122.045     -64.710     367.572
  C     -123.031     -62.386     368.305
  O     -122.580     -63.240     367.270
  O     -123.068     -65.254     368.671
  O     -122.007     -65.583     366.363
  H     -123.187     -66.222     368.588
  H     -123.344     -61.453     367.886
  H     -122.235     -62.216     368.999
  H     -123.855     -62.844     368.812

 6  7  8  9  10  11  12  13  14  15  26  29  33  34 0
 6-311+G(2d,p)
 ****
 36  38  39  40  41 0
 6-311+G(2d,p)
 ****
 1  2  3  4  5  16  17  18  19  20  21  22  23  24  25 0
 3-21G
 ****
 27  28  30  31  32  35  37  42  43  44  45  46  47 0
 3-21G
 ****
 48  49 0
 3-21G
 ****


