%nproc=1
%NoSave
%Mem=1900MB
#P OB98/GEN NMR

erre ene a

0 1
  C       35.471     354.965     -32.655
  O       34.131     355.366     -32.433
  P       32.969     354.392     -32.964
  C       31.939     354.222     -35.344
  O       33.122     354.330     -34.561
  C       32.000     353.013     -36.279
  O       31.867     351.805     -35.497
  C       30.916     353.002     -37.357
  O       31.489     352.469     -38.553
  C       29.894     352.019     -36.819
  O       29.108     351.449     -37.866
  C       30.800     351.025     -36.073
  N       30.073     350.274     -35.053
  C       29.251     349.237     -35.501
  O       29.103     349.043     -36.706
  N       28.576     348.482     -34.573
  C       28.633     348.803     -33.319
  N       27.951     348.021     -32.439
  C       29.392     349.967     -32.818
  C       30.097     350.637     -33.728
  O       31.646     355.268     -32.756
  O       32.893     353.075     -32.264
  H       28.543     352.159     -38.243
  H       30.881     354.699     -32.551
  H       29.378     350.214     -31.767
  H       30.701     351.491     -33.451
  H       31.250     350.313     -36.774
  H       29.219     352.526     -36.119
  H       30.504     353.997     -37.556
  H       32.995     352.992     -36.743
  H       27.427     347.238     -32.808
  H       31.834     355.124     -35.953
  H       27.938     348.195     -31.444
  H       31.069     354.158     -34.683
  P       30.815     352.880     -39.949
  C       28.379     353.073     -40.741
  O       29.259     352.524     -39.778
  O       31.315     351.691     -40.904
  O       31.146     354.214     -40.532
  H       31.017     351.857     -41.817
  H       27.385     352.645     -40.589
  H       28.716     352.835     -41.752
  H       28.319     354.159     -40.612
  H       36.135     355.702     -32.253
  H       35.644     354.865     -33.706
  H       35.647     354.026     -32.173

 3  4  5  6  7  8  9  10  11  12  13  21  23  27  28  29  30  32 0
 6-311+G(2d,p)
 ****
 34  35 0
 6-311+G(2d,p)
 ****
 1  2  14  15  16  17  18  19  20  22  24  25  26 0
 3-21G
 ****
 31  33  36  37  38  39  40  41  42  43  44  45  46 0
 3-21G
 ****


