%nproc=1
%NoSave
%Mem=1900MB
#P OB98/GEN NMR

erre ene a

0 1
  C       54.647      88.249     -77.193
  O       53.834      87.599     -76.235
  H       54.365      87.898     -78.188
  H       55.699      88.009     -77.016
  H       54.498      89.331     -77.144
  P       54.085      87.995     -74.702
  C       53.525      85.944     -73.194
  O       53.055      87.115     -73.843
  C       52.402      84.905     -73.088
  O       51.330      85.458     -72.268
  C       51.776      84.526     -74.439
  O       51.290      83.177     -74.337
  C       50.600      85.486     -74.514
  O       49.694      85.099     -75.521
  C       50.126      85.418     -73.066
  N       45.403      87.318     -73.519
  C       45.956      86.170     -73.964
  N       47.217      85.727     -73.794
  C       47.932      86.596     -73.060
  C       47.503      87.801     -72.530
  C       46.170      88.162     -72.789
  N       45.605      89.335     -72.345
  N       48.526      88.422     -71.836
  C       49.553      87.602     -71.946
  N       49.243      86.493     -72.682
  O       53.495      89.478     -74.603
  O       55.503      87.925     -74.244
  H       50.117      85.139     -76.405
  H       54.212      90.129     -74.718
  H       45.298      85.522     -74.536
  H       50.537      87.767     -71.524
  H       49.615      84.473     -72.848
  H       50.939      86.496     -74.768
  H       52.473      84.600     -75.277
  H       52.780      84.022     -72.560
  H       53.873      86.218     -72.192
  H       54.359      85.521     -73.761
  H       44.647      89.527     -72.587
  H       46.171      89.981     -71.814
  P       51.504      82.173     -75.574
  C       49.075      81.210     -75.701
  O       50.450      80.970     -75.447
  O       52.880      81.449     -75.180
  O       51.610      82.813     -76.918
  H       53.343      81.165     -75.990
  H       48.524      80.302     -75.570
  H       48.953      81.559     -76.705
  H       48.710      81.950     -75.020

 6  7  8  9  10  11  12  13  14  15  25  28  32  33  34  35 0
 6-311+G(2d,p)
 ****
 36  37  40 0
 6-311+G(2d,p)
 ****
 1  2  3  4  5  16  17  18  19  20  21  22  23  24 0
 3-21G
 ****
 26  27  29  30  31  38  39 41  42  43  44  45  46  47  48 0
 3-21G
 ****


