%nproc=1
%NoSave
%Mem=1900MB
#P OB98/GEN NMR

erre ene a

0 1
  C      108.957     -17.783    -130.851
  O      109.279     -16.474    -131.274
  H      108.464     -18.306    -131.674
  H      108.271     -17.740    -130.002
  H      109.861     -18.329    -130.574
  P      110.095     -15.558    -130.239
  C      112.531     -16.242    -130.804
  O      111.518     -15.256    -130.925
  C      113.428     -16.250    -132.040
  O      114.683     -16.918    -131.709
  C      112.827     -16.977    -133.253
  O      113.253     -16.291    -134.436
  C      113.521     -18.329    -133.214
  O      113.509     -18.987    -134.479
  C      114.908     -17.907    -132.732
  N      118.895     -20.826    -133.679
  C      118.405     -19.728    -134.359
  N      119.080     -19.346    -135.465
  N      117.345     -19.062    -133.989
  C      116.787     -19.533    -132.847
  C      117.171     -20.610    -132.084
  C      118.333     -21.356    -132.521
  O      118.802     -22.347    -131.971
  N      116.328     -20.782    -131.014
  C      115.440     -19.812    -131.131
  N      115.677     -19.028    -132.227
  O      110.452     -16.588    -129.067
  O      109.364     -14.362    -129.729
  H      114.174     -19.705    -134.451
  H      109.776     -16.548    -128.364
  H      119.708     -21.311    -134.015
  H      114.612     -19.636    -130.458
  H      115.504     -17.446    -133.529
  H      113.033     -18.984    -132.482
  H      119.930     -19.783    -135.784
  H      111.736     -17.053    -133.239
  H      118.761     -18.518    -135.953
  H      113.682     -15.214    -132.293
  H      112.059     -17.225    -130.697
  H      113.129     -16.037    -129.909
  P      112.170     -16.034    -135.588
  C      111.377     -13.641    -134.950
  O      112.098     -14.456    -135.861
  O      110.782     -16.326    -134.843
  O      112.339     -16.895    -136.795
  H      110.117     -16.628    -135.488
  H      111.424     -12.621    -135.270
  H      111.808     -13.729    -133.975
  H      110.356     -13.959    -134.919

 6  7  8  9  10  11  12  13  14  15  26  29  33  34 0
 6-311+G(2d,p)
 ****
 36  38  39  40  41 0
 6-311+G(2d,p)
 ****
 1  2  3  4  5  16  17  18  19  20  21  22  23  24  25 0
 3-21G
 ****
 27  28  30  31  32  35  37  42  43  44  45  46  47 0
 3-21G
 ****
 48  49 0
 3-21G
 ****


