%nproc=1
%NoSave
%Mem=1900MB
#P OB98/GEN NMR

erre ene a

0 1
  C      190.451      15.257      77.707
  O      189.829      16.173      76.830
  H      189.962      15.315      78.678
  H      191.507      15.510      77.829
  H      190.352      14.235      77.323
  P      190.382      16.236      75.317
  C      188.017      16.272      74.233
  O      189.227      16.980      74.480
  C      187.253      16.916      73.068
  O      186.584      18.108      73.547
  C      188.152      17.318      71.890
  O      187.507      16.966      70.662
  C      188.278      18.830      72.017
  O      188.544      19.449      70.767
  C      186.937      19.199      72.670
  N      187.023      20.467      73.412
  C      186.928      21.637      72.651
  O      186.791      21.587      71.426
  N      187.044      22.844      73.297
  C      187.293      22.884      74.572
  N      187.426      24.114      75.147
  C      187.454      21.670      75.400
  C      187.306      20.506      74.757
  O      190.281      14.713      74.839
  O      191.746      16.831      75.161
  H      188.001      19.004      70.082
  H      190.781      14.564      73.998
  H      187.677      21.747      76.454
  H      187.399      19.560      75.284
  H      186.149      19.295      71.910
  H      189.100      19.063      72.699
  H      189.130      16.847      71.930
  H      186.466      16.228      72.744
  H      187.322      24.917      74.544
  H      187.399      16.290      75.139
  H      187.645      24.254      76.118
  H      188.252      15.236      73.974
  P      188.263      15.863      69.771
  C      186.092      14.459      69.572
  O      187.156      15.102      68.884
  O      188.731      14.759      70.834
  O      189.421      16.419      68.983
  H      189.669      14.888      71.076
  H      185.436      13.998      68.863
  H      185.548      15.182      70.143
  H      186.490      13.713      70.228

 6  7  8  9  10  11  12  13  14  15  16  26  30  31  32  33  35 0
 6-311+G(2d,p)
 ****
 37  38 0
 6-311+G(2d,p)
 ****
 1  2  3  4  5  17  18  19  20  21  22  23  24  25 0
 3-21G
 ****
 27  28  29  34  36  39  40  41  42  43  44  45  46 0
 3-21G
 ****


