%nproc=1
%NoSave
%Mem=1900MB
#P OB98/GEN NMR

erre ene a

0 1
  C      237.524      19.072      64.454
  O      238.318      19.732      63.491
  P      239.565      18.983      62.814
  C      241.501      17.572      63.765
  O      240.585      18.638      64.007
  C      242.908      17.980      64.195
  O      243.362      19.147      63.460
  C      243.013      18.394      65.658
  O      242.791      17.396      66.633
  C      244.366      19.090      65.672
  O      245.437      18.150      65.754
  C      244.366      19.792      64.287
  N      244.128      21.230      64.401
  C      244.878      21.895      65.367
  O      245.698      21.337      66.098
  N      244.632      23.238      65.494
  C      243.698      23.952      64.802
  O      243.497      25.147      64.998
  C      242.925      23.191      63.805
  C      243.170      21.884      63.652
  O      240.185      19.700      61.658
  O      238.975      17.540      62.445
  H      245.455      17.807      66.669
  H      238.646      17.028      63.204
  H      245.154      23.736      66.197
  H      242.184      23.730      63.231
  H      242.610      21.305      62.927
  H      245.331      19.642      63.786
  H      244.462      19.771      66.526
  H      242.254      19.166      65.848
  H      243.590      17.162      63.958
  H      241.509      17.349      62.694
  H      241.166      16.675      64.295
  P      242.004      17.663      68.001
  C      242.178      19.410      69.911
  O      242.836      18.724      68.869
  O      241.466      16.460      68.712
  O      240.768      18.560      67.492
  H      239.990      18.384      68.056
  H      242.878      20.119      70.359
  H      241.845      18.704      70.684
  H      241.321      19.968      69.524
  H      236.747      19.729      64.787
  H      238.134      18.790      65.287
  H      237.089      18.197      64.018

 3  4  5  6  7  8  9  10  11  12  13  23  28  29  30  31  32 0
 6-311+G(2d,p)
 ****
 33  34 0
 6-311+G(2d,p)
 ****
 1  2  14  15  16  17  18  19  20  21  22  24  25  26  27 0
 3-21G
 ****
 35  36  37  38  39  40  41  42  43  44  45 0
 3-21G
 ****


