%nproc=1
%NoSave
%Mem=1900MB
#P OB98/GEN NMR

erre ene a

0 1
  C     -172.916     364.528     423.391
  O     -171.605     365.084     423.551
  P     -170.942     365.043     425.010
  C     -172.368     366.665     426.462
  O     -172.088     365.322     426.100
  C     -172.940     366.729     427.883
  O     -174.243     366.120     427.963
  C     -172.090     366.004     428.915
  O     -171.005     366.807     429.354
  C     -173.095     365.813     430.041
  O     -173.223     367.036     430.795
  C     -174.392     365.525     429.274
  N     -178.030     361.930     429.518
  C     -178.058     363.261     429.767
  N     -177.043     364.147     429.695
  C     -175.911     363.542     429.311
  C     -175.730     362.199     429.027
  C     -176.858     361.372     429.142
  N     -176.824     360.019     428.889
  N     -174.420     361.945     428.678
  C     -173.824     363.118     428.734
  N     -174.680     364.113     429.121
  O     -170.067     366.382     425.047
  O     -170.103     363.833     425.260
  H     -172.380     367.165     431.268
  H     -169.257     366.232     425.572
  H     -179.025     363.665     430.060
  H     -172.780     363.296     428.501
  H     -175.268     365.987     429.748
  H     -172.795     365.034     430.747
  H     -171.759     365.030     428.537
  H     -173.034     367.787     428.162
  H     -173.078     367.104     425.754
  H     -177.683     359.494     428.968
  H     -175.957     359.603     428.586
  H     -171.449     367.256     426.383
  P     -169.541     366.414     428.832
  C     -168.942     364.712     430.699
  O     -169.283     364.919     429.344
  O     -168.581     367.313     429.744
  O     -169.320     366.658     427.377
  H     -167.768     367.533     429.257
  H     -169.103     363.659     430.946
  H     -169.561     365.323     431.361
  H     -167.889     364.954     430.855
  H     -173.223     364.627     422.371
  H     -173.604     365.049     424.023
  H     -172.899     363.492     423.659

 3  4  5  6  7  8  9  10  11  12  22  25  29  30  31  32 0
 6-311+G(2d,p)
 ****
 33  36  37 0
 6-311+G(2d,p)
 ****
 1  2  13  14  15  16  17  18  19  20  21  23  24  26 0
 3-21G
 ****
 27  28  34  35  38  39  40  41  42  43  44  45  46  47  48 0
 3-21G
 ****


