%nproc=1
%NoSave
%Mem=1900MB
#P OB98/GEN NMR

erre ene a

0 1
  C      -87.520     -13.677     188.659
  O      -88.016     -14.873     189.236
  P      -86.949     -16.030     189.563
  C      -85.072     -17.238     188.217
  O      -86.221     -16.396     188.181
  C      -85.146     -18.271     187.094
  O      -86.244     -19.177     187.322
  C      -85.386     -17.686     185.707
  O      -84.204     -17.095     185.189
  C      -85.859     -18.928     184.959
  O      -84.734     -19.745     184.598
  C      -86.709     -19.640     186.026
  N      -90.947     -20.552     183.293
  C      -89.668     -20.964     183.137
  N      -88.591     -20.659     183.893
  C      -88.937     -19.848     184.908
  C      -90.193     -19.332     185.179
  C      -91.233     -19.717     184.320
  N      -92.538     -19.294     184.479
  N      -90.159     -18.516     186.292
  C      -88.902     -18.549     186.690
  N      -88.129     -19.351     185.898
  O      -87.869     -17.305     189.846
  O      -86.030     -15.733     190.711
  H      -85.070     -20.648     184.430
  H      -87.471     -17.879     190.527
  H      -89.483     -21.624     182.294
  H      -88.509     -18.014     187.548
  H      -86.590     -20.731     186.001
  H      -86.406     -18.693     184.040
  H      -86.189     -16.939     185.742
  H      -84.212     -18.851     187.106
  H      -85.032     -17.762     189.178
  H      -93.189     -19.497     183.736
  H      -92.723     -18.565     185.157
  H      -84.174     -16.619     188.123
  P      -84.327     -15.612     184.587
  C      -85.759     -14.614     182.697
  O      -85.264     -15.800     183.292
  O      -82.878     -15.402     183.943
  O      -84.768     -14.571     185.561
  H      -82.609     -16.158     183.395
  H      -86.328     -14.882     181.804
  H      -84.931     -13.961     182.408
  H      -86.419     -14.093     183.398
  H      -88.330     -12.998     188.494
  H      -87.047     -13.901     187.726
  H      -86.808     -13.230     189.321

 3  4  5  6  7  8  9  10  11  12  22  25  29  30  31  32 0
 6-311+G(2d,p)
 ****
 33  36  37 0
 6-311+G(2d,p)
 ****
 1  2  13  14  15  16  17  18  19  20  21  23  24  26 0
 3-21G
 ****
 27  28  34  35  38  39  40  41  42  43  44  45  46  47  48 0
 3-21G
 ****


