%nproc=1
%NoSave
%Mem=1900MB
#P OB98/GEN NMR

erre ene a

0 1
  C      120.620     459.106     605.356
  O      121.766     458.412     605.811
  P      121.704     457.563     607.167
  C      119.925     458.751     608.586
  O      121.312     458.571     608.352
  C      119.693     459.346     609.977
  O      120.026     458.384     610.997
  C      120.549     460.576     610.271
  O      120.034     461.721     609.620
  C      120.478     460.617     611.797
  O      119.258     461.249     612.226
  C      120.468     459.132     612.157
  N      124.024     459.453     615.803
  C      122.907     460.171     615.568
  N      122.028     460.046     614.549
  C      122.414     459.075     613.702
  C      123.539     458.277     613.794
  C      124.364     458.475     614.929
  N      125.471     457.710     615.206
  N      123.612     457.413     612.724
  C      122.545     457.683     611.994
  N      121.759     458.640     612.585
  O      122.891     456.695     607.429
  O      120.380     456.679     606.997
  H      119.380     461.514     613.156
  H      120.620     455.731     607.027
  H      122.680     460.946     616.299
  H      122.294     457.218     611.052
  H      119.750     458.910     612.960
  H      121.305     461.178     612.237
  H      121.588     460.385     609.970
  H      118.625     459.587     610.074
  H      119.426     457.776     608.515
  H      125.906     457.838     616.103
  H      125.562     456.810     614.735
  H      119.504     459.413     607.821
  P      121.038     462.866     609.123
  C      121.221     463.848     611.490
  O      120.873     464.093     610.139
  O      120.954     463.225     607.677
  O      122.487     462.291     609.494
  H      123.141     462.611     608.847
  H      120.416     463.300     611.980
  H      121.359     464.802     611.995
  H      122.152     463.277     611.554
  H      120.849     459.613     604.442
  H      120.319     459.820     606.094
  H      119.825     458.410     605.188

 3  4  5  6  7  8  9  10  11  12  22  25  29  30  31  32 0
 6-311+G(2d,p)
 ****
 33  36  37 0
 6-311+G(2d,p)
 ****
 1  2  13  14  15  16  17  18  19  20  21  23  24  26 0
 3-21G
 ****
 27  28  34  35  38  39  40  41  42  43  44  45  46  47  48 0
 3-21G
 ****


