%nproc=1
%NoSave
%Mem=1900MB
#P OB98/GEN NMR

erre ene a

0 1
  C      -63.507    -203.112     -12.034
  O      -63.451    -203.167     -13.447
  P      -63.553    -201.836     -14.334
  C      -64.649    -203.028     -16.337
  O      -64.821    -202.072     -15.294
  C      -65.864    -203.946     -16.410
  O      -66.080    -204.528     -15.097
  C      -67.191    -203.277     -16.775
  O      -67.405    -203.111     -18.162
  C      -68.187    -204.290     -16.229
  O      -68.302    -205.399     -17.143
  C      -67.502    -204.747     -14.929
  N      -69.071    -205.146     -10.071
  C      -68.634    -206.065     -10.958
  N      -68.252    -205.887     -12.248
  C      -68.310    -204.587     -12.570
  C      -68.732    -203.532     -11.772
  C      -69.122    -203.852     -10.462
  N      -69.545    -202.906      -9.552
  N      -68.669    -202.334     -12.469
  C      -68.213    -202.669     -13.664
  N      -67.973    -204.011     -13.768
  O      -62.286    -201.445     -15.018
  O      -64.077    -200.720     -13.316
  H      -67.392    -205.684     -17.358
  H      -63.922    -199.827     -13.686
  H      -68.587    -207.092     -10.592
  H      -68.048    -201.978     -14.462
  H      -67.648    -205.821     -14.732
  H      -69.185    -203.877     -16.091
  H      -67.315    -202.325     -16.234
  H      -65.637    -204.769     -17.111
  H      -63.757    -203.632     -16.112
  H      -69.682    -203.205      -8.595
  H      -69.429    -201.931      -9.786
  H      -64.482    -202.517     -17.291
  P      -67.605    -201.606     -18.705
  C      -70.152    -202.087     -19.063
  O      -69.157    -201.269     -18.485
  O      -67.082    -201.368     -20.084
  O      -66.875    -200.719     -17.575
  H      -67.306    -200.726     -16.709
  H      -71.130    -201.795     -18.662
  H      -69.984    -203.140     -18.821
  H      -70.165    -201.957     -20.147
  H      -63.422    -204.101     -11.635
  H      -64.439    -202.684     -11.730
  H      -62.702    -202.509     -11.668

 3  4  5  6  7  8  9  10  11  12  22  25  29  30  31  32 0
 6-311+G(2d,p)
 ****
 33  36  37 0
 6-311+G(2d,p)
 ****
 1  2  13  14  15  16  17  18  19  20  21  23  24  26 0
 3-21G
 ****
 27  28  34  35  38  39  40  41  42  43  44  45  46  47  48 0
 3-21G
 ****


