%nproc=1
%NoSave
%Mem=1900MB
#P OB98/GEN NMR

erre ene a

0 1
  C      -23.743    -893.490    -306.620
  O      -24.475    -894.140    -305.590
  P      -23.953    -895.400    -304.758
  C      -23.864    -894.070    -302.502
  O      -23.183    -894.850    -303.469
  C      -23.125    -893.990    -301.149
  O      -22.996    -895.310    -300.594
  C      -21.720    -893.440    -301.325
  O      -21.479    -892.050    -301.421
  C      -20.891    -894.150    -300.265
  O      -20.766    -893.370    -299.082
  C      -21.702    -895.430    -299.996
  N      -17.321    -898.080    -300.395
  C      -17.541    -896.810    -299.855
  N      -16.456    -896.150    -299.408
  N      -18.726    -896.260    -299.774
  C      -19.709    -897.010    -300.343
  C      -19.620    -898.240    -300.919
  C      -18.315    -898.900    -300.929
  O      -18.091    -900.000    -301.390
  N      -20.838    -898.680    -301.410
  C      -21.658    -897.650    -301.137
  N      -21.014    -896.620    -300.484
  O      -23.266    -896.470    -305.548
  O      -25.314    -896.040    -304.138
  H      -21.671    -893.210    -298.742
  H      -25.160    -897.010    -304.106
  H      -16.415    -898.480    -300.391
  H      -22.712    -897.650    -301.383
  H      -21.838    -895.580    -298.937
  H      -19.865    -894.330    -300.631
  H      -15.518    -896.460    -299.542
  H      -21.335    -893.830    -302.310
  H      -16.552    -895.160    -299.222
  H      -23.734    -893.410    -300.422
  H      -24.865    -894.510    -302.378
  H      -24.026    -893.050    -302.907
  P      -20.689    -891.270    -302.588
  C      -22.885    -890.000    -302.892
  O      -21.786    -890.590    -303.522
  O      -20.111    -892.460    -303.497
  O      -19.582    -890.370    -302.114
  H      -19.398    -892.110    -304.083
  H      -23.678    -889.840    -303.623
  H      -22.606    -889.030    -302.475
  H      -23.266    -890.650    -302.093
  H      -24.321    -892.679    -307.011
  H      -23.533    -894.188    -307.403
  H      -22.824    -893.114    -306.222

 3  4  5  6  7  8  9  10  11  12  23  26  30  31 0
 6-311+G(2d,p)
 ****
 33  35  36  37  38 0
 6-311+G(2d,p)
 ****
 1  2  13  14  15  16  17  18  19  20  21  22  24  25 0
 3-21G
 ****
 27  28  29  32  34  39  40  41  42  43  44  45  46  47  48  49 0
 3-21G
 ****


