%nproc=1
%NoSave
%Mem=1900MB
#P OB98/GEN NMR

erre ene a

0 1
  C      189.413     175.479     368.310
  O      189.952     174.198     368.606
  P      189.323     173.387     369.846
  C      189.611     173.505     372.454
  O      190.123     173.811     371.165
  C      190.476     174.138     373.559
  O      191.834     173.687     373.392
  C      190.542     175.659     373.540
  O      190.993     176.111     374.821
  C      191.623     175.909     372.508
  O      192.159     177.226     372.616
  C      192.620     174.756     372.787
  N      193.319     174.264     371.581
  C      194.172     175.138     370.910
  O      194.389     176.295     371.248
  N      194.766     174.643     369.777
  C      194.614     173.375     369.276
  O      195.104     173.007     368.220
  C      193.820     172.453     370.106
  C      193.208     172.942     371.189
  O      189.769     171.875     369.585
  O      187.835     173.527     369.952
  H      191.402     177.848     372.465
  H      189.023     171.353     369.264
  H      195.338     175.274     369.243
  H      193.729     171.424     369.793
  H      192.598     172.277     371.799
  H      193.397     175.069     373.509
  H      191.210     175.803     371.503
  H      189.600     176.161     373.273
  H      190.122     173.774     374.535
  H      189.573     172.409     372.583
  H      188.577     173.871     372.541
  P      189.942     176.896     375.752
  C      188.950     179.268     375.815
  O      189.945     178.424     375.250
  O      190.097     176.690     377.222
  O      188.523     176.353     375.230
  H      187.843     176.523     375.902
  H      189.342     180.287     375.839
  H      188.689     178.963     376.841
  H      188.054     179.238     375.190
  H      189.925     175.896     367.468
  H      189.536     176.122     369.156
  H      188.372     175.384     368.083

 3  4  5  6  7  8  9  10  11  12  13  23  28  29  30  31  32 0
 6-311+G(2d,p)
 ****
 33  34 0
 6-311+G(2d,p)
 ****
 1  2  14  15  16  17  18  19  20  21  22  24  25  26  27 0
 3-21G
 ****
 35  36  37  38  39  40  41  42  43  44  45 0
 3-21G
 ****


