%nproc=1
%NoSave
%Mem=1900MB
#P OB98/GEN NMR

erre ene a

0 1
  C     -205.385      46.078      12.261
  O     -205.226      45.110      11.215
  P     -205.384      43.530      11.447
  C     -202.884      42.990      11.114
  O     -204.212      42.758      10.666
  C     -201.872      42.106      10.377
  O     -202.259      40.701      10.487
  C     -201.724      42.422       8.877
  O     -200.334      42.277       8.565
  C     -202.559      41.322       8.238
  O     -202.274      41.115       6.868
  C     -202.190      40.151       9.155
  N     -203.042      38.973       9.038
  C     -202.838      38.127       7.937
  O     -202.011      38.395       7.069
  N     -203.602      36.988       7.836
  C     -204.490      36.720       8.737
  N     -205.205      35.570       8.580
  C     -204.752      37.587       9.896
  C     -203.999      38.681       9.983
  O     -206.751      43.011      11.127
  O     -205.040      43.288      12.992
  H     -205.605      42.573      13.338
  H     -201.306      41.125       6.758
  H     -205.500      37.322      10.630
  H     -204.109      39.360      10.826
  H     -201.145      39.867       8.979
  H     -203.616      41.592       8.322
  H     -202.041      43.435       8.610
  H     -200.904      42.203      10.883
  H     -204.989      34.994       7.775
  H     -202.834      42.766      12.184
  H     -205.917      35.260       9.223
  H     -202.640      44.048      10.974
  P     -199.314      43.462       8.917
  C     -199.241      44.605       6.575
  O     -198.553      43.864       7.565
  O     -198.163      42.682       9.718
  O     -199.856      44.576       9.751
  H     -197.711      43.303      10.315
  H     -198.585      45.400       6.211
  H     -200.158      45.058       6.958
  H     -199.491      43.941       5.742
  H     -205.232      47.060      11.864
  H     -204.668      45.890      13.033
  H     -206.373      46.006      12.666

 3  4  5  6  7  8  9  10  11  12  13  24  27  28  29  30  32 0
 6-311+G(2d,p)
 ****
 34  35 0
 6-311+G(2d,p)
 ****
 1  2  14  15  16  17  18  19  20  21  22  23  25  26 0
 3-21G
 ****
 31  33  36  37  38  39  40  41  42  43  44  45  46 0
 3-21G
 ****


