%nproc=1
%NoSave
%Mem=1900MB
#P OB98/GEN NMR

erre ene a

0 1
  C       16.717      35.023     -56.768
  O       16.443      34.118     -55.717
  H       15.791      35.218     -57.316
  H       17.450      34.594     -57.457
  H       17.094      35.965     -56.362
  P       17.692      33.615     -54.847
  C       19.474      31.736     -55.076
  O       18.278      32.315     -55.581
  C       19.723      30.396     -55.764
  O       18.831      29.394     -55.220
  C       19.452      30.408     -57.262
  O       20.510      30.987     -58.006
  C       19.295      28.922     -57.537
  O       20.563      28.283     -57.740
  C       18.613      28.412     -56.254
  N       17.192      28.145     -56.467
  C       16.895      26.955     -57.126
  O       17.754      26.163     -57.511
  N       15.567      26.720     -57.364
  C       14.539      27.565     -57.062
  O       13.375      27.317     -57.355
  C       14.914      28.815     -56.382
  C       16.205      29.048     -56.123
  O       17.005      33.030     -53.525
  O       18.704      34.666     -54.533
  H       17.150      33.641     -52.780
  H       20.381      27.323     -57.764
  H       15.331      25.863     -57.839
  H       14.122      29.509     -56.128
  H       16.508      29.967     -55.632
  H       19.087      27.485     -55.911
  H       18.702      28.752     -58.433
  H       18.500      30.912     -57.472
  H       20.757      30.086     -55.561
  H       19.377      31.569     -53.998
  H       20.307      32.427     -55.250
  P       20.131      32.071     -59.129
  C       18.414      31.975     -61.121
  O       19.268      31.281     -60.225
  O       21.559      32.294     -59.816
  O       19.498      33.298     -58.567
  H       22.128      31.509     -59.731
  H       17.930      31.274     -61.768
  H       18.992      32.660     -61.706
  H       17.676      32.514     -60.565

 6  7  8  9  10  11  12  13  14  15  16  27  31  32  33  34  35 0
 6-311+G(2d,p)
 ****
 36  37 0
 6-311+G(2d,p)
 ****
 1  2  3  4  5  17  18  19  20  21  22  23  24  25 0
 3-21G
 ****
 26  28  29  30  38  39  40  41  42  43  44  45 0
 3-21G
 ****


