%nproc=1
%NoSave
%Mem=1900MB
#P OB98/GEN NMR

erre ene a

0 1
  C      -79.277      73.574     214.852
  O      -80.377      73.160     214.066
  H      -78.389      73.619     214.215
  H      -79.091      72.864     215.661
  H      -79.460      74.571     215.265
  P      -81.781      72.905     214.794
  C      -82.755      71.062     216.324
  O      -81.691      71.453     215.468
  C      -82.779      69.537     216.500
  O      -82.831      68.913     215.186
  C      -81.544      68.977     217.225
  O      -81.958      67.796     217.927
  C      -80.650      68.616     216.056
  O      -79.589      67.782     216.451
  C      -81.685      68.040     215.082
  N      -81.184      67.953     213.720
  C      -81.452      66.765     213.035
  O      -82.068      65.855     213.590
  N      -80.988      66.625     211.752
  C      -80.262      67.558     211.224
  N      -79.822      67.349     209.953
  C      -79.907      68.805     211.932
  C      -80.399      68.938     213.163
  O      -82.997      73.134     213.959
  O      -81.746      73.892     216.056
  H      -78.975      67.617     215.701
  H      -82.324      74.659     215.889
  H      -79.282      69.546     211.455
  H      -80.192      69.817     213.764
  H      -82.003      67.039     215.403
  H      -80.194      69.517     215.629
  H      -81.096      69.691     217.919
  H      -83.703      69.258     217.020
  H      -80.080      66.476     209.509
  H      -83.688      71.398     215.866
  H      -79.235      67.997     209.448
  H      -82.649      71.543     217.303
  P      -81.887      67.663     219.523
  C      -80.103      67.290     221.351
  O      -80.353      67.598     219.982
  O      -82.734      66.563     220.079
  O      -82.382      69.082     220.082
  H      -82.822      68.949     220.943
  H      -79.048      67.277     221.527
  H      -80.514      66.329     221.581
  H      -80.559      68.032     221.973

 6  7  8  9  10  11  12  13  14  15  16  26  30  31  32  33  35 0
 6-311+G(2d,p)
 ****
 37  38 0
 6-311+G(2d,p)
 ****
 1  2  3  4  5  17  18  19  20  21  22  23  24  25 0
 3-21G
 ****
 27  28  29  34  36  39  40  41  42  43  44  45  46 0
 3-21G
 ****


