%nproc=1
%NoSave
%Mem=1900MB
#P OB98/GEN NMR

erre ene a

0 1
  C     -732.060      67.007    -338.681
  O     -732.841      65.913    -338.262
  H     -731.436      66.699    -339.527
  H     -731.402      67.357    -337.880
  H     -732.704      67.832    -339.009
  P     -733.727      66.076    -336.938
  C     -731.614      66.088    -335.449
  O     -732.845      65.458    -335.750
  C     -730.761      65.167    -334.574
  O     -731.331      65.057    -333.258
  C     -730.671      63.747    -335.109
  O     -729.789      63.675    -336.214
  C     -730.230      62.992    -333.865
  O     -728.825      63.136    -333.639
  C     -731.046      63.719    -332.770
  N     -732.274      63.014    -332.409
  C     -732.107      61.846    -331.655
  O     -730.984      61.471    -331.333
  N     -733.232      61.132    -331.314
  C     -734.412      61.542    -331.676
  N     -735.473      60.791    -331.308
  C     -734.621      62.784    -332.456
  C     -733.515      63.463    -332.788
  O     -735.138      65.567    -336.998
  O     -733.670      67.650    -336.640
  H     -728.611      62.538    -332.900
  H     -734.406      68.110    -337.099
  H     -735.614      63.099    -332.725
  H     -733.586      64.378    -333.360
  H     -730.430      63.846    -331.856
  H     -730.451      61.933    -333.940
  H     -731.666      63.384    -335.384
  H     -729.761      65.611    -334.470
  H     -735.281      59.944    -330.786
  H     -731.839      67.007    -334.906
  H     -736.433      61.054    -331.456
  H     -731.074      66.344    -336.362
  P     -730.277      63.048    -337.605
  C     -731.110      60.680    -337.046
  O     -730.023      61.471    -337.485
  O     -729.701      63.702    -338.826
  O     -731.872      63.161    -337.513
  H     -732.173      64.093    -337.638
  H     -730.812      59.653    -337.009
  H     -731.929      60.790    -337.726
  H     -731.412      60.999    -336.070

 6  7  8  9  10  11  12  13  14  15  16  26  30  31  32  33  35 0
 6-311+G(2d,p)
 ****
 37  38 0
 6-311+G(2d,p)
 ****
 1  2  3  4  5  17  18  19  20  21  22  23  24  25 0
 3-21G
 ****
 27  28  29  34  36  39  40  41  42  43  44  45  46 0
 3-21G
 ****


