%nproc=1
%NoSave
%Mem=1900MB
#P OB98/GEN NMR

erre ene a

0 1
  C      123.834    -305.259    -113.636
  O      122.853    -304.235    -113.586
  P      122.991    -303.013    -112.565
  C      120.388    -302.763    -112.351
  O      121.643    -302.906    -111.721
  C      119.324    -302.491    -111.276
  O      119.082    -303.684    -110.503
  C      119.761    -301.386    -110.316
  O      119.248    -300.132    -110.732
  C      119.202    -301.858    -108.989
  O      117.809    -301.517    -108.880
  C      119.371    -303.392    -109.108
  N      120.688    -303.973    -108.784
  C      121.142    -303.959    -107.467
  O      120.496    -303.511    -106.527
  N      122.403    -304.469    -107.270
  C      123.203    -305.013    -108.229
  O      124.403    -305.234    -108.088
  C      122.568    -305.243    -109.527
  C      121.369    -304.702    -109.750
  O      122.932    -301.734    -113.523
  O      124.220    -303.021    -111.718
  H      117.707    -300.613    -109.228
  H      123.829    -301.400    -113.708
  H      122.795    -304.334    -106.339
  H      123.115    -305.799    -110.278
  H      120.892    -304.831    -110.719
  H      118.631    -303.916    -108.497
  H      119.700    -301.371    -108.153
  H      120.857    -301.359    -110.247
  H      118.383    -302.217    -111.771
  H      120.142    -303.668    -112.908
  H      120.419    -301.935    -113.067
  P      120.254    -298.991    -111.226
  C      118.111    -297.598    -111.422
  O      119.464    -297.611    -111.015
  O      120.841    -299.192    -112.586
  O      121.383    -298.980    -110.091
  H      122.155    -299.507    -110.381
  H      117.644    -296.676    -111.060
  H      117.576    -298.455    -111.004
  H      118.055    -297.621    -112.514
  H      123.560    -305.979    -114.379
  H      123.898    -305.738    -112.681
  H      124.783    -304.832    -113.885

 3  4  5  6  7  8  9  10  11  12  13  23  28  29  30  31  32 0
 6-311+G(2d,p)
 ****
 33  34 0
 6-311+G(2d,p)
 ****
 1  2  14  15  16  17  18  19  20  21  22  24  25  26  27 0
 3-21G
 ****
 35  36  37  38  39  40  41  42  43  44  45 0
 3-21G
 ****


