%nproc=1
%NoSave
%Mem=1900MB
#P OB98/GEN NMR

erre ene a

0 1
  C       -9.136     463.551     201.813
  O       -8.142     462.651     201.296
  P       -6.725     462.638     202.050
  C       -5.988     460.142     202.033
  O       -5.850     461.434     201.447
  C       -5.479     459.072     201.072
  O       -6.453     458.760     200.046
  C       -4.219     459.490     200.310
  O       -3.073     459.427     201.152
  C       -4.228     458.476     199.171
  O       -3.713     457.209     199.618
  C       -5.729     458.349     198.863
  N       -6.843     458.276     193.865
  C       -6.446     457.306     194.719
  N       -6.162     457.406     196.037
  C       -6.346     458.668     196.465
  C       -6.753     459.764     195.715
  C       -7.006     459.528     194.350
  N       -7.400     460.529     193.479
  N       -6.822     460.894     196.507
  C       -6.443     460.492     197.708
  N       -6.156     459.153     197.732
  O       -7.096     462.136     203.528
  O       -6.045     463.969     202.076
  H       -2.805     457.367     199.959
  H       -7.022     462.874     204.158
  H       -6.332     456.317     194.279
  H       -6.365     461.132     198.577
  H       -6.016     457.315     198.652
  H       -3.621     458.789     198.315
  H       -4.337     460.506     199.914
  H       -5.280     458.155     201.649
  H       -7.032     459.948     202.285
  H       -7.479     460.298     192.503
  H       -7.438     461.480     193.816
  H       -5.431     460.125     202.976
  P       -1.948     460.554     200.947
  C       -2.388     461.566     203.265
  O       -1.464     460.874     202.451
  O       -2.824     461.833     200.581
  O       -0.865     460.196     199.982
  H       -3.597     461.924     201.171
  H       -1.953     461.691     204.267
  H       -3.321     460.999     203.351
  H       -2.593     462.560     202.841
  H      -10.030     463.468     201.230
  H       -8.769     464.555     201.762
  H       -9.349     463.300     202.831

 3  4  5  6  7  8  9  10  11  12  22  25  29  30  31  32 0
 6-311+G(2d,p)
 ****
 33  36  37 0
 6-311+G(2d,p)
 ****
 1  2  13  14  15  16  17  18  19  20  21  23  24  26 0
 3-21G
 ****
 27  28  34  35  38  39  40  41  42  43  44  45  46  47  48 0
 3-21G
 ****


