%nproc=1
%NoSave
%Mem=1900MB
#P OB98/GEN NMR

erre ene a

0 1
  C      334.721    -316.718    -865.889
  O      335.841    -317.019    -866.704
  H      334.149    -317.635    -865.721
  H      334.073    -315.984    -866.397
  H      335.048    -316.315    -864.924
  P      336.775    -315.776    -867.117
  C      338.816    -317.366    -866.941
  O      338.114    -316.413    -867.732
  C      339.397    -318.469    -867.826
  O      338.365    -319.403    -868.248
  C      340.076    -317.963    -869.103
  O      341.405    -317.559    -868.840
  C      339.997    -319.192    -869.988
  O      341.034    -320.136    -869.657
  C      338.609    -319.775    -869.624
  N      335.414    -321.086    -873.314
  C      336.450    -321.793    -872.740
  N      336.701    -323.016    -873.246
  N      337.201    -321.333    -871.769
  C      336.876    -320.062    -871.400
  C      335.875    -319.264    -871.886
  C      335.018    -319.808    -872.913
  O      334.024    -319.265    -873.414
  N      335.838    -318.047    -871.241
  C      336.863    -318.103    -870.398
  N      337.518    -319.312    -870.456
  O      337.254    -315.193    -865.705
  O      336.119    -314.722    -867.944
  H      341.899    -319.717    -869.778
  H      337.289    -314.213    -865.769
  H      334.853    -321.501    -874.033
  H      337.140    -317.315    -869.716
  H      338.600    -320.871    -869.681
  H      340.123    -318.939    -871.043
  H      336.368    -323.306    -874.159
  H      339.484    -317.151    -869.555
  H      337.520    -323.502    -872.885
  H      340.114    -319.042    -867.211
  H      338.101    -317.818    -866.221
  H      339.616    -316.875    -866.387
  P      342.086    -316.532    -869.867
  C      343.513    -315.237    -868.119
  O      343.513    -316.089    -869.257
  O      341.189    -315.202    -869.714
  O      342.126    -317.015    -871.287
  H      340.603    -315.114    -870.504
  H      344.522    -315.029    -867.829
  H      343.002    -315.719    -867.312
  H      343.015    -314.321    -868.359

 6  7  8  9  10  11  12  13  14  15  26  29  33  34 0
 6-311+G(2d,p)
 ****
 36  38  39  40  41 0
 6-311+G(2d,p)
 ****
 1  2  3  4  5  16  17  18  19  20  21  22  23  24  25 0
 3-21G
 ****
 27  28  30  31  32  35  37  42  43  44  45  46  47 0
 3-21G
 ****
 48  49 0
 3-21G
 ****


