%nproc=1
%NoSave
%Mem=1900MB
#P OB98/GEN NMR

erre ene a

0 1
  C      173.794    -229.759      49.263
  O      174.490    -228.666      49.832
  H      172.895    -229.385      48.767
  H      173.501    -230.462      50.045
  H      174.420    -230.270      48.521
  P      175.958    -228.946      50.412
  C      177.442    -228.464      48.326
  O      176.965    -228.002      49.585
  C      177.352    -227.341      47.291
  O      175.941    -227.115      46.976
  C      177.931    -226.001      47.767
  O      178.550    -225.351      46.646
  C      176.699    -225.212      48.178
  O      176.880    -223.802      48.161
  C      175.688    -225.707      47.134
  N      174.300    -225.465      47.542
  C      173.764    -224.204      47.281
  O      174.341    -223.310      46.663
  N      172.500    -223.990      47.774
  C      171.750    -224.875      48.495
  O      170.628    -224.613      48.929
  C      172.373    -226.184      48.746
  C      173.596    -226.414      48.268
  O      176.288    -230.412      49.859
  O      176.098    -228.851      51.896
  H      175.987    -231.094      50.493
  H      175.988    -223.394      48.228
  H      172.098    -223.080      47.593
  H      171.811    -226.907      49.323
  H      174.098    -227.365      48.453
  H      175.868    -225.225      46.167
  H      176.387    -225.505      49.190
  H      178.655    -226.091      48.585
  H      177.838    -227.674      46.366
  H      176.833    -229.309      47.997
  H      178.481    -228.798      48.435
  P      179.995    -224.691      46.879
  C      181.439    -226.338      45.427
  O      180.848    -225.046      45.567
  O      180.596    -225.650      48.016
  O      179.927    -223.243      47.239
  H      180.312    -226.580      47.913
  H      181.965    -226.391      44.497
  H      180.673    -227.085      45.447
  H      182.122    -226.507      46.233

 6  7  8  9  10  11  12  13  14  15  16  27  31  32  33  34  35 0
 6-311+G(2d,p)
 ****
 36  37 0
 6-311+G(2d,p)
 ****
 1  2  3  4  5  17  18  19  20  21  22  23  24  25 0
 3-21G
 ****
 26  28  29  30  38  39  40  41  42  43  44  45 0
 3-21G
 ****


