%nproc=1
%NoSave
%Mem=1900MB
#P OB98/GEN NMR

erre ene a

0 1
  C      -72.438     733.922    -244.306
  O      -71.356     733.895    -245.215
  H      -72.746     734.961    -244.160
  H      -72.134     733.507    -243.340
  H      -73.281     733.358    -244.710
  P      -70.728     732.456    -245.539
  C      -72.160     732.353    -247.692
  O      -71.830     731.733    -246.456
  C      -71.683     731.502    -248.866
  O      -72.202     730.170    -248.757
  C      -72.101     732.026    -250.233
  O      -71.212     733.037    -250.677
  C      -71.976     730.760    -251.075
  O      -70.597     730.560    -251.442
  C      -72.425     729.655    -250.100
  N      -75.861     727.184    -253.001
  C      -74.594     727.570    -253.248
  N      -73.757     728.276    -252.454
  C      -74.345     728.568    -251.280
  C      -75.635     728.243    -250.884
  C      -76.413     727.508    -251.803
  N      -77.708     727.114    -251.544
  N      -75.895     728.715    -249.617
  C      -74.765     729.264    -249.232
  N      -73.806     729.233    -250.218
  O      -70.242     731.680    -244.361
  O      -69.594     732.847    -246.604
  H      -70.293     731.389    -251.851
  H      -69.927     733.527    -247.219
  H      -74.198     727.286    -254.218
  H      -74.577     729.685    -248.245
  H      -71.814     728.753    -250.204
  H      -72.549     730.812    -252.003
  H      -73.145     732.355    -250.238
  H      -70.585     731.430    -248.798
  H      -71.711     733.353    -247.749
  H      -78.244     726.765    -252.323
  H      -78.150     727.466    -250.709
  H      -73.249     732.468    -247.727
  P      -71.744     734.496    -251.074
  C      -70.804     735.362    -248.842
  O      -71.956     735.243    -249.672
  O      -72.912     734.501    -251.991
  O      -70.463     735.227    -251.690
  H      -70.739     736.015    -252.194
  H      -71.066     735.874    -247.940
  H      -70.047     735.914    -249.359
  H      -70.434     734.387    -248.604

 6  7  8  9  10  11  12  13  14  15  25  28  32  33  34  35 0
 6-311+G(2d,p)
 ****
 36  39  40 0
 6-311+G(2d,p)
 ****
 1  2  3  4  5  16  17  18  19  20  21  22  23  24 0
 3-21G
 ****
 26  27  29  30  31  37  38  41  42  43  44  45  46  47 0
 3-21G
 ****
 48 0
 3-21G
 ****


