%nproc=1
%NoSave
%Mem=1900MB
#P OB98/GEN NMR

erre ene a

0 1
  C      720.791    -700.198    1553.592
  O      719.940    -700.837    1552.642
  P      720.515    -701.360    1551.234
  C      722.199    -700.408    1549.546
  O      721.336    -700.114    1550.635
  C      721.910    -699.436    1548.384
  O      722.267    -698.081    1548.810
  C      722.711    -699.674    1547.097
  O      722.161    -700.657    1546.224
  C      722.605    -698.294    1546.452
  O      721.310    -698.158    1545.830
  C      722.723    -697.348    1547.651
  N      726.774    -695.190    1545.428
  C      725.535    -695.494    1544.964
  N      724.533    -696.102    1545.612
  C      724.854    -696.341    1546.883
  C      726.075    -696.084    1547.502
  C      727.084    -695.488    1546.728
  N      728.308    -695.151    1547.207
  N      726.055    -696.476    1548.833
  C      724.842    -696.976    1549.012
  N      724.082    -696.899    1547.872
  O      719.486    -701.951    1550.331
  O      721.671    -702.398    1551.643
  H      721.238    -697.230    1545.505
  H      721.907    -702.956    1550.877
  H      725.359    -695.252    1543.921
  H      724.459    -697.386    1549.925
  H      722.076    -696.466    1547.562
  H      723.338    -698.141    1545.663
  H      723.763    -699.880    1547.318
  H      720.824    -699.440    1548.172
  H      721.986    -701.442    1549.203
  H      728.922    -694.611    1546.591
  H      728.476    -695.203    1548.220
  H      723.237    -700.338    1549.851
  P      723.179    -701.440    1545.243
  C      725.355    -700.657    1544.018
  O      724.115    -700.293    1544.623
  O      722.510    -702.347    1544.273
  O      724.140    -702.192    1546.278
  H      724.721    -701.599    1546.816
  H      725.750    -699.768    1543.523
  H      725.209    -701.451    1543.275
  H      726.059    -700.969    1544.798
  H      720.221    -699.927    1554.456
  H      721.216    -699.319    1553.155
  H      721.574    -700.869    1553.877

 3  4  5  6  7  8  9  10  11  12  22  25  29  30  31  32 0
 6-311+G(2d,p)
 ****
 33  36  37 0
 6-311+G(2d,p)
 ****
 1  2  13  14  15  16  17  18  19  20  21  23  24  26 0
 3-21G
 ****
 27  28  34  35  38  39  40  41  42  43  44  45  46  47  48 0
 3-21G
 ****


