%nproc=1
%NoSave
%Mem=1900MB
#P OB98/GEN NMR

erre ene a

0 1
  C      186.878      19.024      22.123
  O      186.700      18.456      23.408
  P      185.453      17.464      23.614
  C      187.024      15.613      24.536
  O      185.882      16.429      24.763
  C      187.543      15.005      25.842
  O      188.355      15.989      26.527
  C      186.442      14.550      26.799
  O      186.888      13.356      27.444
  C      186.379      15.669      27.821
  O      185.845      15.216      29.065
  C      187.848      16.112      27.870
  N      187.997      17.474      28.375
  C      188.566      17.619      29.643
  O      188.844      16.623      30.311
  N      188.758      18.884      30.141
  C      188.320      19.908      29.477
  N      188.536      21.141      30.011
  C      187.603      19.790      28.193
  C      187.498      18.558      27.695
  O      185.481      16.574      22.286
  O      184.141      18.148      23.811
  H      185.621      16.007      29.605
  H      184.580      16.307      22.027
  H      187.225      20.673      27.698
  H      187.007      18.379      26.747
  H      188.435      15.439      28.510
  H      185.744      16.481      27.447
  H      185.489      14.364      26.294
  H      188.198      14.162      25.588
  H      189.017      21.194      30.900
  H      187.821      16.226      24.106
  H      188.229      21.995      29.566
  H      186.772      14.828      23.816
  P      185.838      12.152      27.588
  C      187.596      10.434      26.844
  O      186.734      10.855      27.883
  O      185.420      11.909      26.056
  O      184.638      12.356      28.448
  H      184.725      11.229      26.011
  H      188.238       9.635      27.224
  H      188.223      11.263      26.506
  H      187.008      10.044      26.008
  H      187.739      19.659      22.130
  H      186.013      19.599      21.864
  H      187.016      18.244      21.404

 3  4  5  6  7  8  9  10  11  12  13  21  23  27  28  29  30  32 0
 6-311+G(2d,p)
 ****
 34  35 0
 6-311+G(2d,p)
 ****
 1  2  14  15  16  17  18  19  20  22  24  25  26 0
 3-21G
 ****
 31  33  36  37  38  39  40  41  42  43  44  45  46 0
 3-21G
 ****


