%nproc=1
%NoSave
%Mem=1900MB
#P OB98/GEN NMR

erre ene a

0 1
  C     -469.189    1258.853    -553.196
  O     -469.259    1259.414    -554.489
  P     -468.979    1258.436    -555.735
  C     -470.338    1259.543    -557.649
  O     -469.073    1259.350    -557.042
  C     -470.299    1260.726    -558.623
  O     -470.193    1261.958    -557.905
  C     -469.129    1260.726    -559.599
  O     -469.354    1259.900    -560.714
  C     -469.093    1262.173    -560.032
  O     -470.109    1262.419    -561.017
  C     -469.454    1262.922    -558.711
  N     -465.853    1266.540    -558.489
  C     -466.838    1266.312    -559.363
  N     -467.744    1265.319    -559.357
  C     -467.531    1264.484    -558.332
  C     -466.557    1264.571    -557.356
  C     -465.698    1265.651    -557.440
  N     -464.684    1265.908    -556.526
  N     -466.658    1263.521    -556.467
  C     -467.708    1262.836    -556.878
  N     -468.280    1263.374    -557.996
  O     -470.331    1257.564    -555.805
  O     -467.793    1257.568    -555.626
  H     -470.078    1263.345    -561.233
  H     -470.161    1256.723    -556.263
  H     -466.911    1267.014    -560.174
  H     -468.100    1261.944    -556.387
  H     -470.091    1263.789    -558.877
  H     -468.133    1262.492    -560.465
  H     -468.185    1260.455    -559.082
  H     -471.254    1260.751    -559.184
  H     -471.104    1259.748    -556.889
  H     -464.236    1266.796    -556.540
  H     -464.713    1265.375    -555.643
  H     -470.606    1258.620    -558.196
  P     -468.066    1259.241    -561.408
  C     -469.720    1258.161    -563.093
  O     -468.529    1258.845    -562.911
  O     -467.933    1257.826    -560.690
  O     -466.833    1260.063    -561.263
  H     -466.999    1257.511    -560.700
  H     -470.033    1258.275    -564.150
  H     -470.523    1258.594    -562.487
  H     -469.618    1257.094    -562.861
  H     -469.395    1259.609    -552.468
  H     -468.209    1258.457    -553.032
  H     -469.910    1258.068    -553.108

 3  4  5  6  7  8  9  10  11  12  22  25  29  30  31  32 0
 6-311+G(2d,p)
 ****
 33  36  37 0
 6-311+G(2d,p)
 ****
 1  2  13  14  15  16  17  18  19  20  21  23  24  26 0
 3-21G
 ****
 27  28  34  35  38  39  40  41  42  43  44  45  46  47  48 0
 3-21G
 ****


