%nproc=1
%NoSave
%Mem=1900MB
#P OB98/GEN NMR

erre ene a

0 1
  C     -253.415     134.981     287.882
  O     -253.652     135.853     286.796
  H     -252.814     134.137     287.532
  H     -254.359     134.599     288.278
  H     -252.865     135.504     288.668
  P     -254.608     137.110     287.071
  C     -253.086     139.215     286.975
  O     -253.709     138.229     287.787
  C     -253.642     140.593     287.331
  O     -255.007     140.705     286.861
  C     -253.704     140.871     288.824
  O     -252.445     141.239     289.366
  C     -254.706     142.011     288.865
  O     -254.079     143.278     288.623
  C     -255.676     141.644     287.727
  N     -256.938     141.114     288.241
  C     -257.809     142.051     288.790
  O     -257.556     143.254     288.847
  N     -258.969     141.554     289.311
  C     -259.315     140.237     289.381
  O     -260.350     139.854     289.912
  C     -258.349     139.288     288.803
  C     -257.220     139.762     288.271
  O     -255.570     136.591     288.237
  O     -255.375     137.589     285.883
  H     -256.458     136.410     287.876
  H     -253.279     143.295     289.186
  H     -259.616     142.218     289.711
  H     -258.591     138.234     288.844
  H     -256.486     139.084     287.849
  H     -255.904     142.527     287.118
  H     -255.189     142.070     289.837
  H     -254.124     140.009     289.355
  H     -253.039     141.354     286.819
  H     -253.294     139.012     285.921
  H     -252.005     139.176     287.133
  P     -252.243     141.095     290.952
  C     -251.370     138.612     290.894
  O     -252.386     139.529     291.269
  O     -253.607     141.744     291.483
  O     -250.996     141.747     291.446
  H     -254.325     141.657     290.831
  H     -251.653     137.624     291.192
  H     -250.452     138.880     291.374
  H     -251.238     138.640     289.832

 6  7  8  9  10  11  12  13  14  15  16  27  31  32  33  34  35 0
 6-311+G(2d,p)
 ****
 36  37 0
 6-311+G(2d,p)
 ****
 1  2  3  4  5  17  18  19  20  21  22  23  24  25 0
 3-21G
 ****
 26  28  29  30  38  39  40  41  42  43  44  45 0
 3-21G
 ****


