%nproc=1
%NoSave
%Mem=1900MB
#P OB98/GEN NMR

erre ene a

0 1
  C     -210.922    -306.708    -251.464
  O     -209.519    -306.494    -251.475
  H     -211.382    -306.043    -252.197
  H     -211.328    -306.486    -250.474
  H     -211.142    -307.743    -251.737
  P     -208.652    -307.357    -250.437
  C     -207.188    -305.215    -250.401
  O     -207.211    -306.640    -250.427
  C     -205.892    -304.693    -251.030
  O     -204.769    -304.958    -250.163
  C     -205.560    -305.326    -252.379
  O     -206.260    -304.659    -253.418
  C     -204.066    -305.041    -252.458
  O     -203.844    -303.684    -252.895
  C     -203.606    -305.204    -251.000
  N     -199.467    -308.225    -251.279
  C     -199.756    -307.058    -251.878
  N     -200.897    -306.332    -251.805
  C     -201.792    -306.937    -250.995
  C     -201.630    -308.136    -250.316
  C     -200.399    -308.793    -250.477
  N     -200.102    -310.000    -249.865
  N     -202.764    -308.449    -249.586
  C     -203.569    -307.416    -249.782
  N     -203.048    -306.496    -250.652
  O     -208.653    -308.835    -250.661
  O     -209.287    -306.885    -249.043
  H     -202.882    -303.593    -253.048
  H     -209.457    -305.924    -249.056
  H     -198.976    -306.635    -252.500
  H     -204.536    -307.285    -249.290
  H     -202.849    -304.452    -250.723
  H     -203.553    -305.691    -253.174
  H     -205.720    -306.401    -252.373
  H     -205.982    -303.604    -251.119
  H     -207.270    -304.859    -249.364
  H     -199.283    -310.485    -250.181
  H     -200.853    -310.476    -249.370
  H     -208.063    -304.859    -250.954
  P     -207.169    -305.487    -254.455
  C     -207.133    -303.645    -256.243
  O     -207.933    -304.367    -255.325
  O     -208.036    -306.528    -253.829
  O     -206.125    -306.089    -255.501
  H     -206.543    -306.823    -256.003
  H     -207.740    -302.933    -256.762
  H     -206.697    -304.323    -256.947
  H     -206.357    -303.133    -255.714

 6  7  8  9  10  11  12  13  14  15  25  28  32  33  34  35 0
 6-311+G(2d,p)
 ****
 36  39  40 0
 6-311+G(2d,p)
 ****
 1  2  3  4  5  16  17  18  19  20  21  22  23  24 0
 3-21G
 ****
 26  27  29  30  31  37  38  41  42  43  44  45  46  47 0
 3-21G
 ****
 48 0
 3-21G
 ****


