%nproc=1
%NoSave
%Mem=1900MB
#P OB98/GEN NMR

erre ene a

0 1
  C      238.884    -425.809    -427.383
  O      239.551    -425.445    -426.190
  H      239.302    -425.224    -428.210
  H      237.819    -425.588    -427.296
  H      239.031    -426.874    -427.593
  P      239.153    -426.251    -424.861
  C      239.986    -426.214    -422.404
  O      239.916    -425.526    -423.645
  C      240.580    -425.314    -421.320
  O      241.915    -424.884    -421.734
  C      239.761    -424.048    -421.029
  O      239.863    -423.756    -419.627
  C      240.514    -422.972    -421.796
  O      240.250    -421.657    -421.298
  C      241.950    -423.450    -421.584
  N      245.116    -419.585    -422.214
  C      244.361    -419.961    -421.118
  N      244.459    -419.178    -420.015
  N      243.568    -420.997    -421.101
  C      243.590    -421.711    -422.261
  C      244.294    -421.444    -423.417
  C      245.136    -420.261    -423.428
  O      245.815    -419.874    -424.377
  N      244.022    -422.385    -424.381
  C      243.163    -423.209    -423.812
  N      242.873    -422.840    -422.524
  O      239.952    -427.631    -425.036
  O      237.690    -426.474    -424.658
  H      239.279    -421.512    -421.337
  H      239.380    -428.299    -425.455
  H      245.696    -418.765    -422.176
  H      242.727    -424.084    -424.279
  H      242.324    -423.220    -420.579
  H      240.241    -422.998    -422.855
  H      245.079    -418.386    -419.938
  H      238.701    -424.120    -421.314
  H      243.941    -419.457    -419.187
  H      240.710    -425.911    -420.403
  H      240.624    -427.097    -422.522
  H      238.981    -426.542    -422.111
  P      238.714    -424.310    -418.653
  C      238.327    -424.353    -416.078
  O      238.996    -423.747    -417.179
  O      239.081    -425.865    -418.521
  O      237.325    -424.109    -419.168
  H      238.270    -426.381    -418.335
  H      238.620    -423.867    -415.171
  H      238.589    -425.389    -416.028
  H      237.269    -424.258    -416.207

 6  7  8  9  10  11  12  13  14  15  26  29  33  34 0
 6-311+G(2d,p)
 ****
 36  38  39  40  41 0
 6-311+G(2d,p)
 ****
 1  2  3  4  5  16  17  18  19  20  21  22  23  24  25 0
 3-21G
 ****
 27  28  30  31  32  35  37  42  43  44  45  46  47 0
 3-21G
 ****
 48  49 0
 3-21G
 ****


