%nproc=1
%NoSave
%Mem=1900MB
#P OB98/GEN NMR

erre ene a

0 1
  C     -639.910    -839.528     104.456
  O     -639.498    -839.767     103.131
  H     -639.362    -838.669     104.847
  H     -639.699    -840.395     105.092
  H     -640.985    -839.306     104.495
  P     -640.161    -840.982     102.328
  C     -637.883    -842.187     102.184
  O     -638.988    -841.639     101.461
  C     -636.588    -841.928     101.415
  O     -636.512    -842.766     100.243
  C     -636.434    -840.486     100.918
  O     -635.977    -839.639     101.971
  C     -635.402    -840.681      99.822
  O     -634.087    -840.845     100.399
  C     -635.879    -841.995      99.185
  N     -636.526    -841.973      94.153
  C     -635.359    -842.107      94.907
  N     -634.210    -842.226      94.211
  N     -635.343    -842.126      96.206
  C     -636.561    -841.939      96.765
  C     -637.772    -841.783      96.122
  C     -637.794    -841.810      94.687
  O     -638.792    -841.729      93.985
  N     -638.786    -841.561      97.034
  C     -638.192    -841.625      98.206
  N     -636.831    -841.841      98.092
  O     -641.397    -840.665     101.542
  O     -640.448    -842.078     103.454
  H     -633.859    -839.966     100.782
  H     -641.343    -841.993     103.828
  H     -636.474    -841.954      93.142
  H     -638.691    -841.528      99.159
  H     -635.050    -842.590      98.796
  H     -635.357    -839.827      99.135
  H     -634.134    -841.915      93.247
  H     -637.363    -840.111     100.470
  H     -633.343    -842.266      94.731
  H     -635.756    -842.202     102.069
  H     -638.061    -843.263     102.277
  H     -637.822    -841.759     103.175
  P     -636.874    -838.419     102.520
  C     -635.816    -836.278     101.586
  O     -635.878    -837.201     102.656
  O     -637.664    -838.744     103.751
  O     -637.774    -838.007     101.270
  H     -638.619    -838.518     101.208
  H     -635.105    -835.513     101.816
  H     -636.780    -835.837     101.439
  H     -635.517    -836.786     100.693

 6  7  8  9  10  11  12  13  14  15  26  29  33  34 0
 6-311+G(2d,p)
 ****
 36  38  39  40  41 0
 6-311+G(2d,p)
 ****
 1  2  3  4  5  16  17  18  19  20  21  22  23  24  25 0
 3-21G
 ****
 27  28  30  31  32  35  37  42  43  44  45  46  47 0
 3-21G
 ****
 48  49 0
 3-21G
 ****


