%nproc=1
%NoSave
%Mem=1900MB
#P OB98/GEN NMR

erre ene a

0 1
  C      260.905    -207.021     -45.574
  O      259.711    -206.451     -46.069
  P      259.749    -205.537     -47.379
  C      260.801    -203.299     -48.087
  O      260.485    -204.162     -47.001
  C      259.854    -202.096     -48.101
  O      260.105    -201.252     -46.950
  C      260.031    -201.189     -49.316
  O      259.438    -201.758     -50.463
  C      259.368    -199.913     -48.825
  O      257.937    -199.989     -48.958
  C      259.752    -199.902     -47.328
  N      261.149    -195.023     -46.729
  C      259.989    -195.591     -47.162
  N      259.720    -196.899     -47.333
  C      260.785    -197.659     -47.027
  C      262.036    -197.215     -46.599
  C      262.192    -195.836     -46.429
  N      263.329    -195.247     -45.925
  N      262.883    -198.298     -46.412
  C      262.158    -199.359     -46.729
  N      260.868    -199.016     -47.037
  O      258.442    -205.378     -48.096
  O      260.822    -206.270     -48.321
  H      257.568    -199.153     -48.602
  H      260.390    -206.539     -49.164
  H      259.189    -194.901     -47.408
  H      262.517    -200.377     -46.726
  H      258.915    -199.605     -46.691
  H      259.698    -199.022     -49.367
  H      261.100    -200.998     -49.489
  H      258.826    -202.470     -48.044
  H      260.695    -203.859     -49.023
  H      263.279    -194.266     -45.709
  H      263.993    -195.840     -45.417
  H      261.848    -202.969     -47.990
  P      259.999    -201.401     -51.922
  C      260.299    -199.245     -53.272
  O      259.605    -199.879     -52.212
  O      259.670    -202.376     -53.001
  O      261.591    -201.317     -51.691
  H      262.050    -201.611     -52.498
  H      261.297    -198.955     -52.925
  H      259.749    -198.346     -53.576
  H      260.390    -199.906     -54.139
  H      260.689    -207.597     -44.698
  H      261.596    -206.243     -45.328
  H      261.334    -207.656     -46.321

 3  4  5  6  7  8  9  10  11  12  22  25  29  30  31  32 0
 6-311+G(2d,p)
 ****
 33  36  37 0
 6-311+G(2d,p)
 ****
 1  2  13  14  15  16  17  18  19  20  21  23  24  26 0
 3-21G
 ****
 27  28  34  35  38  39  40  41  42  43  44  45  46  47  48 0
 3-21G
 ****


