%nproc=1
%NoSave
%Mem=1900MB
#P OB98/GEN NMR

erre ene a

0 1
  C     -800.869    -337.605     349.187
  O     -801.199    -338.509     348.152
  P     -800.600    -339.989     348.252
  C     -802.553    -340.892     346.761
  O     -801.144    -340.808     346.978
  C     -802.831    -341.531     345.399
  O     -802.576    -340.573     344.343
  C     -801.946    -342.720     345.091
  O     -802.395    -343.895     345.758
  C     -802.055    -342.820     343.574
  O     -803.235    -343.523     343.188
  C     -802.147    -341.321     343.171
  N     -800.901    -340.808     342.633
  C     -800.456    -341.399     341.450
  O     -801.066    -342.320     340.902
  N     -799.275    -340.920     340.943
  C     -798.468    -339.973     341.525
  O     -797.393    -339.630     341.056
  C     -798.969    -339.404     342.795
  C     -800.137    -339.845     343.282
  O     -801.368    -340.653     349.482
  O     -799.116    -340.048     348.415
  H     -803.315    -343.426     342.214
  H     -800.762    -341.249     349.963
  H     -798.952    -341.327     340.080
  H     -798.375    -338.651     343.271
  H     -800.518    -339.453     344.212
  H     -802.942    -341.191     342.424
  H     -801.208    -343.335     343.122
  H     -800.906    -342.502     345.365
  H     -803.889    -341.814     345.363
  H     -802.986    -339.882     346.796
  H     -802.999    -341.486     347.571
  P     -801.345    -344.648     346.714
  C     -802.924    -344.441     348.797
  O     -802.230    -345.275     347.887
  O     -800.600    -343.393     347.376
  O     -800.434    -345.586     345.971
  H     -801.183    -342.626     347.492
  H     -803.296    -343.535     348.279
  H     -802.260    -344.145     349.607
  H     -803.768    -344.985     349.203
  H     -801.332    -336.660     348.996
  H     -799.807    -337.480     349.226
  H     -801.218    -337.991     350.122

 3  4  5  6  7  8  9  10  11  12  13  23  28  29  30  31  32 0
 6-311+G(2d,p)
 ****
 33  34 0
 6-311+G(2d,p)
 ****
 1  2  14  15  16  17  18  19  20  21  22  24  25  26 0
 3-21G
 ****
 27  35  36  37  38  39  40  41  42  43  44  45 0
 3-21G
 ****


