%nproc=1
%NoSave
%Mem=1900MB
#P OB98/GEN NMR

erre ene a

0 1
  C     -381.836    -184.394     102.636
  O     -382.793    -185.383     102.303
  H     -382.156    -183.892     103.550
  H     -381.774    -183.656     101.834
  H     -380.853    -184.842     102.811
  P     -382.430    -186.462     101.174
  C     -382.020    -188.329     102.900
  O     -381.461    -187.537     101.871
  C     -380.934    -189.164     103.604
  O     -380.112    -188.274     104.410
  C     -381.488    -190.251     104.540
  O     -380.555    -191.336     104.538
  C     -381.474    -189.540     105.880
  O     -381.561    -190.449     106.957
  C     -380.163    -188.748     105.765
  N     -380.087    -187.653     106.734
  C     -379.643    -187.988     108.015
  O     -379.369    -189.137     108.353
  N     -379.589    -186.958     108.927
  C     -379.973    -185.672     108.686
  O     -379.926    -184.799     109.545
  C     -380.468    -185.387     107.335
  C     -380.497    -186.377     106.429
  O     -381.928    -185.905      99.880
  O     -383.786    -187.295     100.980
  H     -380.705    -190.908     107.079
  H     -383.847    -187.623     100.052
  H     -379.269    -187.179     109.845
  H     -380.791    -184.372     107.116
  H     -380.855    -186.196     105.423
  H     -379.307    -189.404     105.928
  H     -382.328    -188.851     105.968
  H     -382.484    -190.599     104.257
  H     -380.286    -189.600     102.843
  H     -382.763    -188.998     102.451
  H     -382.523    -187.692     103.637
  P     -380.576    -192.486     103.417
  C     -378.100    -192.116     102.824
  O     -379.436    -192.164     102.333
  O     -381.928    -192.742     102.824
  O     -380.026    -193.791     104.163
  H     -380.392    -194.589     103.740
  H     -377.432    -191.895     102.018
  H     -377.843    -193.063     103.252
  H     -378.022    -191.354     103.571

 6  7  8  9  10  11  12  13  14  15  16  26  31  32  33  34  35 0
 6-311+G(2d,p)
 ****
 36  37 0
 6-311+G(2d,p)
 ****
 1  2  3  4  5  17  18  19  20  21  22  23  24  25 0
 3-21G
 ****
 27  28  29  30  38  39  40  41  42  43  44  45 0
 3-21G
 ****


