%nproc=1
%NoSave
%Mem=1900MB
#P OB98/GEN NMR

erre ene a

0 1
  C      -58.112     -89.709     706.711
  O      -58.012     -88.557     707.525
  H      -57.169     -89.849     706.178
  H      -58.916     -89.584     705.978
  H      -58.309     -90.594     707.324
  P      -59.265     -88.221     708.464
  C      -59.761     -85.683     708.234
  O      -59.075     -86.703     708.954
  C      -58.929     -84.402     708.191
  O      -58.583     -84.014     709.549
  C      -57.607     -84.532     707.405
  O      -57.359     -83.282     706.750
  C      -56.578     -84.703     708.504
  O      -55.260     -84.356     708.083
  C      -57.162     -83.779     709.572
  N      -56.271     -81.691     714.065
  C      -56.920     -81.185     712.952
  N      -57.407     -79.929     713.050
  N      -57.079     -81.861     711.846
  C      -56.579     -83.111     711.904
  C      -55.911     -83.728     712.934
  C      -55.716     -82.963     714.147
  O      -55.134     -83.346     715.160
  N      -55.522     -85.004     712.585
  C      -55.960     -85.147     711.343
  N      -56.600     -84.033     710.889
  O      -58.961     -89.083     709.783
  O      -60.608     -88.542     707.888
  H      -55.233     -83.376     707.943
  H      -59.401     -89.951     709.726
  H      -56.171     -81.120     714.884
  H      -55.823     -86.041     710.744
  H      -56.986     -82.723     709.355
  H      -56.559     -85.746     708.852
  H      -57.366     -79.365     713.892
  H      -57.600     -85.342     706.672
  H      -57.927     -79.556     712.264
  H      -59.552     -83.599     707.773
  H      -60.713     -85.477     708.738
  H      -59.964     -86.037     707.218
  P      -57.581     -83.205     705.160
  C      -55.939     -81.530     704.005
  O      -57.184     -81.719     704.674
  O      -59.179     -83.204     705.018
  O      -56.955     -84.322     704.398
  H      -59.432     -83.591     704.164
  H      -55.825     -80.497     703.749
  H      -55.919     -82.122     703.114
  H      -55.139     -81.829     704.650

 6  7  8  9  10  11  12  13  14  15  26  29  33  34 0
 6-311+G(2d,p)
 ****
 36  38  39  40  41 0
 6-311+G(2d,p)
 ****
 1  2  3  4  5  16  17  18  19  20  21  22  23  24  25 0
 3-21G
 ****
 27  28  30  31  32  35  37  42  43  44  45  46  47 0
 3-21G
 ****
 48  49 0
 3-21G
 ****


