%nproc=1
%NoSave
%Mem=1900MB
#P OB98/GEN NMR

erre ene a

0 1
  C     -681.686      52.481    -534.785
  O     -681.768      52.974    -536.130
  P     -681.651      51.888    -537.299
  C     -679.071      52.176    -537.276
  O     -680.251      52.120    -538.056
  C     -677.910      52.718    -538.115
  O     -677.539      51.787    -539.170
  C     -678.229      54.031    -538.817
  O     -678.198      55.111    -537.901
  C     -677.121      54.060    -539.866
  O     -675.876      54.500    -539.290
  C     -677.016      52.578    -540.264
  N     -676.583      50.619    -544.973
  C     -675.683      50.817    -543.994
  N     -675.880      51.350    -542.771
  C     -677.167      51.677    -542.585
  C     -678.204      51.538    -543.499
  C     -677.870      50.981    -544.751
  N     -678.802      50.814    -545.764
  N     -679.389      52.002    -542.968
  C     -679.065      52.434    -541.759
  N     -677.732      52.254    -541.475
  O     -682.744      52.364    -538.367
  O     -681.908      50.487    -536.847
  H     -675.630      53.856    -538.594
  H     -683.511      51.766    -538.359
  H     -674.668      50.504    -544.217
  H     -679.756      52.888    -541.049
  H     -675.974      52.264    -540.412
  H     -677.342      54.726    -540.705
  H     -679.206      53.982    -539.303
  H     -677.033      52.842    -537.452
  H     -678.824      51.183    -536.885
  H     -678.463      50.478    -546.648
  H     -679.739      51.154    -545.618
  H     -679.251      52.818    -536.397
  P     -679.458      55.312    -536.939
  C     -680.423      56.242    -539.136
  O     -680.381      56.368    -537.725
  O     -678.836      56.193    -535.760
  O     -680.146      54.039    -536.526
  H     -678.288      56.920    -536.095
  H     -681.110      56.995    -539.534
  H     -680.799      55.243    -539.410
  H     -679.422      56.391    -539.563
  H     -681.777      53.298    -534.100
  H     -680.743      51.997    -534.640
  H     -682.477      51.781    -534.613

 3  4  5  6  7  8  9  10  11  12  22  25  29  30  31  32 0
 6-311+G(2d,p)
 ****
 33  36  37 0
 6-311+G(2d,p)
 ****
 1  2  13  14  15  16  17  18  19  20  21  23  24  26 0
 3-21G
 ****
 27  28  34  35  38  39  40  41  42  43  44  45  46  47  48 0
 3-21G
 ****


