%nproc=1
%NoSave
%Mem=1900MB
#P OB98/GEN NMR

erre ene a

0 1
  C     -367.521     -20.924     297.029
  O     -368.414     -20.973     295.910
  P     -367.752     -21.232     294.475
  C     -369.183     -19.751     292.885
  O     -368.895     -21.063     293.358
  C     -370.672     -19.634     292.548
  O     -371.469     -19.400     293.727
  C     -370.988     -18.477     291.610
  O     -370.597     -18.773     290.278
  C     -372.492     -18.341     291.820
  O     -373.197     -19.340     291.059
  C     -372.637     -18.635     293.324
  N     -373.055     -16.850     298.095
  C     -372.984     -18.110     297.607
  N     -372.874     -18.502     296.319
  C     -372.833     -17.437     295.499
  C     -372.886     -16.102     295.852
  C     -373.010     -15.819     297.228
  N     -373.091     -14.539     297.728
  N     -372.808     -15.296     294.739
  C     -372.735     -16.134     293.724
  N     -372.732     -17.438     294.135
  O     -367.457     -22.804     294.480
  O     -366.510     -20.433     294.231
  H     -374.111     -19.013     290.928
  H     -366.497     -22.960     294.551
  H     -373.024     -18.905     298.346
  H     -372.682     -15.844     292.680
  H     -373.517     -19.245     293.538
  H     -372.880     -17.360     291.514
  H     -370.480     -17.564     291.946
  H     -370.993     -20.580     292.090
  H     -368.584     -19.527     291.997
  H     -373.258     -14.423     298.717
  H     -373.147     -13.760     297.081
  H     -368.899     -19.029     293.660
  P     -370.108     -17.561     289.351
  C     -371.801     -17.620     287.420
  O     -370.521     -18.026     287.867
  O     -368.522     -17.772     289.358
  O     -370.588     -16.211     289.774
  H     -368.283     -18.710     289.215
  H     -371.938     -17.968     286.396
  H     -371.879     -16.531     287.439
  H     -372.577     -18.058     288.053
  H     -368.080     -20.747     297.924
  H     -366.814     -20.133     296.887
  H     -367.001     -21.856     297.112

 3  4  5  6  7  8  9  10  11  12  22  25  29  30  31  32 0
 6-311+G(2d,p)
 ****
 33  36  37 0
 6-311+G(2d,p)
 ****
 1  2  13  14  15  16  17  18  19  20  21  23  24  26 0
 3-21G
 ****
 27  28  34  35  38  39  40  41  42  43  44  45  46  47  48 0
 3-21G
 ****


