%nproc=1
%NoSave
%Mem=1900MB
#P OB98/GEN NMR

erre ene a

0 1
  C      367.524      66.828      97.129
  O      366.830      67.903      96.531
  H      368.268      66.451      96.422
  H      366.829      66.019      97.373
  H      368.034      67.165      98.035
  P      365.646      68.555      97.396
  C      363.919      66.626      97.265
  O      364.279      67.931      96.832
  C      362.513      66.275      96.785
  O      362.190      64.904      97.110
  C      361.408      67.140      97.383
  O      361.272      68.356      96.670
  C      360.202      66.227      97.226
  O      359.687      66.275      95.877
  C      360.799      64.846      97.528
  N      358.343      61.897     100.809
  C      358.108      62.127      99.471
  N      357.042      61.501      98.923
  N      358.844      62.912      98.726
  C      359.840      63.518      99.417
  C      360.174      63.374     100.742
  C      359.385      62.460     101.539
  O      359.592      62.151     102.708
  N      361.261      64.146     101.067
  C      361.562      64.775      99.947
  N      360.724      64.433      98.917
  O      365.596      70.072      96.879
  O      365.825      68.496      98.874
  H      359.109      65.506      95.729
  H      365.406      70.654      97.637
  H      357.762      61.258     101.325
  H      362.377      65.477      99.829
  H      360.319      64.055      96.942
  H      359.380      66.530      97.879
  H      356.290      61.131      99.489
  H      361.586      67.325      98.450
  H      356.829      61.729      97.961
  H      362.510      66.352      95.689
  H      363.948      66.596      98.359
  H      364.637      65.904      96.866
  P      361.555      69.728      97.445
  C      359.424      69.627      98.921
  O      360.145      70.329      97.919
  O      362.010      70.716      96.269
  O      362.603      69.639      98.503
  H      362.972      70.858      96.308
  H      358.511      70.144      99.132
  H      360.015      69.569      99.811
  H      359.203      68.639      98.575

 6  7  8  9  10  11  12  13  14  15  26  29  33  34 0
 6-311+G(2d,p)
 ****
 36  38  39  40  41 0
 6-311+G(2d,p)
 ****
 1  2  3  4  5  16  17  18  19  20  21  22  23  24  25 0
 3-21G
 ****
 27  28  30  31  32  35  37  42  43  44  45  46  47 0
 3-21G
 ****
 48  49 0
 3-21G
 ****


