%nproc=1
%NoSave
%Mem=1900MB
#P OB98/GEN NMR

erre ene a

0 1
  C      -66.213    -258.027     -57.456
  O      -65.350    -257.053     -56.903
  H      -66.375    -258.814     -56.715
  H      -65.760    -258.469     -58.347
  H      -67.176    -257.577     -57.711
  P      -64.941    -255.837     -57.867
  C      -63.516    -255.598     -60.020
  O      -63.935    -256.447     -58.960
  C      -62.344    -256.221     -60.771
  O      -62.796    -257.299     -61.620
  C      -61.580    -255.249     -61.663
  O      -60.624    -254.518     -60.914
  C      -60.941    -256.204     -62.662
  O      -59.762    -256.822     -62.105
  C      -62.054    -257.242     -62.868
  N      -62.488    -257.070     -67.897
  C      -61.387    -257.329     -67.105
  N      -60.218    -257.547     -67.746
  N      -61.421    -257.359     -65.799
  C      -62.642    -257.064     -65.291
  C      -63.807    -256.789     -65.967
  C      -63.765    -256.815     -67.414
  O      -64.724    -256.673     -68.168
  N      -64.843    -256.560     -65.097
  C      -64.296    -256.662     -63.902
  N      -62.960    -256.961     -63.966
  O      -63.984    -254.938     -56.948
  O      -66.077    -255.036     -58.406
  H      -60.012    -257.322     -61.308
  H      -64.156    -253.997     -57.144
  H      -62.410    -257.090     -68.896
  H      -64.822    -256.539     -62.965
  H      -61.648    -258.244     -63.049
  H      -60.619    -255.683     -63.565
  H      -60.067    -257.256     -68.701
  H      -62.267    -254.576     -62.191
  H      -59.398    -257.663     -67.163
  H      -61.673    -256.664     -60.023
  H      -63.209    -254.635     -59.599
  H      -64.353    -255.440     -60.706
  P      -59.894    -253.280     -61.622
  C      -58.110    -253.088     -63.500
  O      -59.208    -253.817     -62.972
  O      -58.647    -253.001     -60.655
  O      -60.738    -252.061     -61.773
  H      -58.815    -252.199     -60.125
  H      -57.762    -253.564     -64.393
  H      -57.320    -253.062     -62.779
  H      -58.420    -252.089     -63.725

 6  7  8  9  10  11  12  13  14  15  26  29  33  34 0
 6-311+G(2d,p)
 ****
 36  38  39  40  41 0
 6-311+G(2d,p)
 ****
 1  2  3  4  5  16  17  18  19  20  21  22  23  24  25 0
 3-21G
 ****
 27  28  30  31  32  35  37  42  43  44  45  46  47 0
 3-21G
 ****
 48  49 0
 3-21G
 ****


