%nproc=1
%NoSave
%Mem=1900MB
#P OB98/GEN NMR

erre ene a

0 1
  C       66.417      82.738    1006.635
  O       67.836      82.716    1006.741
  P       68.666      82.132    1005.504
  C       69.169      79.628    1006.002
  O       68.294      80.569    1005.412
  C       69.175      78.328    1005.210
  O       67.837      77.778    1005.117
  C       69.631      78.483    1003.759
  O       71.049      78.506    1003.639
  C       69.072      77.205    1003.140
  O       69.933      76.094    1003.439
  C       67.731      77.062    1003.876
  N       63.804      75.824    1000.906
  C       64.625      75.024    1001.685
  N       64.399      73.690    1001.611
  N       65.572      75.470    1002.463
  C       65.687      76.826    1002.425
  C       64.946      77.734    1001.711
  C       63.903      77.210    1000.849
  O       63.181      77.874    1000.102
  N       65.352      79.017    1001.948
  C       66.342      78.901    1002.811
  N       66.613      77.574    1003.098
  O       70.173      82.114    1006.036
  O       68.525      82.904    1004.231
  H       70.784      76.263    1002.988
  H       70.798      82.037    1005.288
  H       63.097      75.432    1000.326
  H       66.899      79.717    1003.234
  H       67.510      76.008    1004.112
  H       68.989      77.255    1002.057
  H       63.719      73.272    1000.979
  H       69.167      79.350    1003.283
  H       65.014      73.064    1002.116
  H       69.804      77.603    1005.736
  H       68.850      79.433    1007.029
  H       70.181      80.046    1006.042
  P       71.683      79.754    1002.849
  C       72.017      78.529    1000.581
  O       71.311      79.504    1001.310
  O       73.259      79.454    1002.912
  O       71.328      81.084    1003.415
  H       73.755      80.280    1002.852
  H       71.480      78.303     999.661
  H       72.124      77.595    1001.158
  H       73.021      78.901    1000.323
  H       65.999      83.151    1007.529
  H       66.054      81.741    1006.499
  H       66.131      83.339    1005.797

 3  4  5  6  7  8  9  10  11  12  23  26  30  31 0
 6-311+G(2d,p)
 ****
 33  35  36  37  38 0
 6-311+G(2d,p)
 ****
 1  2  13  14  15  16  17  18  19  20  21  22  24  25 0
 3-21G
 ****
 27  28  29  32  34  39  40  41  42  43  44  45  46  47  48  49 0
 3-21G
 ****


