%nproc=1
%NoSave
%Mem=1900MB
#P OB98/GEN NMR

erre ene a

0 1
  C     -113.892      73.213     -48.551
  O     -113.656      72.974     -49.923
  H     -113.378      74.134     -48.261
  H     -113.499      72.388     -47.953
  H     -114.963      73.332     -48.365
  P     -114.324      71.659     -50.553
  C     -115.102      73.033     -52.612
  O     -114.380      71.903     -52.143
  C     -115.148      73.040     -54.140
  O     -113.936      73.667     -54.645
  C     -115.239      71.639     -54.764
  O     -116.091      71.702     -55.913
  C     -113.815      71.374     -55.220
  O     -113.757      70.406     -56.262
  C     -113.384      72.777     -55.635
  N     -109.469      72.507     -58.781
  C     -110.822      72.375     -59.022
  N     -111.195      72.128     -60.296
  N     -111.734      72.472     -58.090
  C     -111.222      72.746     -56.866
  C     -109.907      72.888     -56.496
  C     -108.905      72.757     -57.533
  O     -107.691      72.839     -57.379
  N     -109.795      73.125     -55.148
  C     -111.041      73.127     -54.707
  N     -111.940      72.904     -55.714
  O     -115.859      71.770     -50.112
  O     -113.711      70.364     -50.139
  H     -114.182      69.586     -55.934
  H     -116.255      70.884     -50.005
  H     -108.807      72.411     -59.533
  H     -111.341      73.280     -53.680
  H     -113.784      73.064     -56.617
  H     -113.213      71.012     -54.380
  H     -110.551      72.072     -61.071
  H     -115.607      70.877     -54.076
  H     -112.185      72.040     -60.498
  H     -115.985      73.670     -54.463
  H     -114.608      73.945     -52.259
  H     -116.120      73.000     -52.211
  P     -117.154      70.519     -56.114
  C     -119.047      72.056     -57.003
  O     -118.197      70.950     -57.257
  O     -118.026      70.588     -54.772
  O     -116.534      69.171     -56.287
  H     -117.815      69.827     -54.204
  H     -119.680      72.221     -57.849
  H     -118.454      72.929     -56.826
  H     -119.648      71.853     -56.142

 6  7  8  9  10  11  12  13  14  15  26  29  33  34 0
 6-311+G(2d,p)
 ****
 36  38  39  40  41 0
 6-311+G(2d,p)
 ****
 1  2  3  4  5  16  17  18  19  20  21  22  23  24  25 0
 3-21G
 ****
 27  28  30  31  32  35  37  42  43  44  45  46  47 0
 3-21G
 ****
 48  49 0
 3-21G
 ****


