%nproc=1
%NoSave
%Mem=1900MB
#P OB98/GEN NMR

erre ene a

0 1
  C     -734.946     -74.805    -700.454
  O     -735.139     -75.719    -699.393
  P     -736.651     -76.132    -699.031
  C     -736.233     -78.667    -698.627
  O     -736.795     -77.674    -699.480
  C     -735.623     -79.794    -699.454
  O     -734.433     -79.331    -700.123
  C     -735.195     -81.006    -698.647
  O     -736.292     -81.859    -698.350
  C     -734.226     -81.679    -699.614
  O     -734.971     -82.457    -700.581
  C     -733.562     -80.473    -700.301
  N     -728.714     -81.921    -699.958
  C     -729.777     -82.516    -700.620
  N     -729.499     -83.652    -701.318
  N     -730.994     -82.054    -700.606
  C     -731.119     -80.896    -699.911
  C     -730.145     -80.216    -699.210
  C     -728.808     -80.766    -699.195
  O     -727.845     -80.327    -698.581
  N     -730.649     -79.074    -698.645
  C     -731.911     -79.035    -699.023
  N     -732.254     -80.146    -699.769
  O     -737.516     -75.350    -700.130
  O     -737.088     -75.803    -697.645
  H     -735.536     -83.062    -700.077
  H     -738.415     -75.191    -699.802
  H     -727.791     -82.320    -700.018
  H     -732.613     -78.244    -698.790
  H     -733.469     -80.637    -701.388
  H     -733.531     -82.360    -699.125
  H     -728.557     -83.979    -701.477
  H     -734.655     -80.714    -697.740
  H     -730.253     -84.078    -701.838
  H     -736.357     -80.078    -700.226
  H     -737.020     -79.073    -697.996
  H     -735.463     -78.196    -697.996
  P     -736.545     -82.179    -696.780
  C     -738.974     -81.284    -696.566
  O     -737.597     -81.075    -696.306
  O     -735.168     -81.729    -696.091
  O     -736.883     -83.601    -696.498
  H     -735.035     -82.214    -695.264
  H     -739.244     -82.345    -696.483
  H     -739.213     -80.935    -697.570
  H     -739.564     -80.725    -695.840
  H     -733.899     -74.623    -700.582
  H     -735.443     -73.885    -700.227
  H     -735.350     -75.215    -701.356

 3  4  5  6  7  8  9  10  11  12  23  26  30  31  33  0
 6-311+G(2d,p)
 ****
 35  36  37  38 0
 6-311+G(2d,p)
 ****
 1  2  13  14  15  16  17  18  19  20  21  22  24  25  27  28  29 0
 3-21G
 ****
 32  34  39  40  41  42  43  44  45  46  47  48  49 0
 3-21G
 ****


