%nproc=1
%NoSave
%Mem=1900MB
#P OB98/GEN NMR

erre ene a

0 1
  C      137.658      20.972     276.116
  O      136.613      21.011     277.086
  P      135.150      20.520     276.651
  C      135.236      17.949     276.851
  O      134.806      19.170     277.447
  C      134.157      16.864     277.003
  O      134.274      15.928     275.895
  C      134.267      16.015     278.275
  O      133.597      16.469     279.448
  C      133.563      14.731     277.839
  O      132.139      14.886     277.983
  C      133.918      14.609     276.360
  N      135.143       9.700     275.604
  C      133.957      10.312     275.816
  N      133.719      11.625     276.010
  C      134.858      12.332     275.954
  C      136.138      11.845     275.744
  C      136.266      10.459     275.565
  N      137.471       9.832     275.361
  N      137.058      12.872     275.764
  C      136.347      13.957     276.000
  N      135.012      13.685     276.110
  O      134.880      20.489     275.184
  O      134.198      21.589     277.378
  H      131.963      14.962     278.941
  H      133.442      21.789     276.793
  H      133.088       9.661     275.835
  H      136.755      14.952     276.100
  H      133.070      14.269     275.756
  H      133.849      13.871     278.453
  H      135.316      15.801     278.512
  H      133.166      17.331     276.950
  H      136.162      17.616     277.327
  H      137.481       8.827     275.288
  H      138.323      10.375     275.388
  H      135.474      18.157     275.808
  P      134.372      16.640     280.839
  C      134.607      19.219     280.466
  O      134.139      18.165     281.277
  O      135.797      16.211     280.827
  O      133.444      15.829     281.857
  H      132.577      16.234     282.022
  H      134.165      20.156     280.821
  H      134.318      19.066     279.424
  H      135.694      19.290     280.545
  H      138.566      21.328     276.556
  H      137.396      21.593     275.285
  H      137.795      19.965     275.780

 3  4  5  6  7  8  9  10  11  12  22  25  29  30  31  32 0
 6-311+G(2d,p)
 ****
 33  36  37 0
 6-311+G(2d,p)
 ****
 1  2  13  14  15  16  17  18  19  20  21  23  24  26 0
 3-21G
 ****
 27  28  34  35  38  39  40  41  42  43  44  45  46  47  48 0
 3-21G
 ****


