%nproc=1
%NoSave
%Mem=1900MB
#P OB98/GEN NMR

erre ene a

0 1
  C     -108.264      87.982      69.879
  O     -108.070      86.771      70.590
  P     -107.524      85.446      69.857
  C     -105.007      86.019      70.081
  O     -106.117      85.870      69.209
  C     -103.777      85.312      69.501
  O     -103.503      85.863      68.187
  C     -102.503      85.464      70.344
  O     -101.764      84.244      70.224
  C     -101.775      86.603      69.652
  O     -100.381      86.608      69.928
  C     -102.136      86.329      68.187
  N     -101.982      87.511      67.340
  C     -100.691      87.849      66.927
  O      -99.717      87.187      67.284
  N     -100.529      88.941      66.108
  C     -101.552      89.680      65.805
  N     -101.349      90.714      64.942
  C     -102.915      89.420      66.309
  C     -103.056      88.319      67.046
  O     -108.483      84.817      68.907
  O     -107.062      84.494      71.054
  H      -99.971      87.344      69.432
  H     -107.806      83.955      71.425
  H     -103.731      90.082      66.050
  H     -104.023      88.035      67.439
  H     -101.523      85.511      67.794
  H     -102.188      87.561      69.990
  H     -102.716      85.655      71.401
  H     -104.023      84.251      69.365
  H     -100.444      90.757      64.485
  H     -105.258      85.561      71.042
  H     -102.119      91.115      64.416
  H     -104.806      87.082      70.246
  P     -100.795      83.817      71.432
  C     -102.486      82.185      72.538
  O     -101.712      83.360      72.663
  O     -100.251      85.246      71.931
  O      -99.641      82.933      71.079
  H      -99.385      85.123      72.365
  H     -103.039      82.027      73.471
  H     -101.840      81.318      72.365
  H     -103.203      82.286      71.720
  H     -108.629      88.733      70.547
  H     -108.975      87.825      69.095
  H     -107.334      88.301      69.458

 3  4  5  6  7  8  9  10  11  12  13  23  27  28  29  30  32 0
 6-311+G(2d,p)
 ****
 34  35 0
 6-311+G(2d,p)
 ****
 1  2  14  15  16  17  18  19  20  21  22  24  25  26 0
 3-21G
 ****
 31  33  36  37  38  39  40  41  42  43  44  45  46 0
 3-21G
 ****


