%nproc=1
%NoSave
%Mem=1900MB
#P OB98/GEN NMR

erre ene a

0 1
  C       88.356    -231.210      20.597
  O       88.507    -230.424      19.427
  P       89.073    -231.051      18.066
  C       91.325    -232.040      17.305
  O       90.618    -231.402      18.358
  C       92.745    -232.422      17.735
  O       92.676    -233.391      18.824
  C       93.611    -233.032      16.629
  O       94.957    -232.603      16.881
  C       93.472    -234.526      16.882
  O       94.504    -235.289      16.275
  C       93.439    -234.554      18.423
  N       92.869    -235.793      18.933
  C       93.156    -236.111      20.264
  O       93.932    -235.405      20.919
  N       92.619    -237.252      20.808
  C       91.930    -238.060      20.051
  N       91.411    -239.172      20.642
  C       91.706    -237.822      18.610
  C       92.188    -236.675      18.126
  O       88.833    -230.231      16.840
  O       88.398    -232.500      18.002
  H       94.407    -236.226      16.562
  H       87.453    -232.430      17.712
  H       91.176    -238.546      18.004
  H       92.071    -236.411      17.079
  H       94.460    -234.433      18.829
  H       92.511    -234.879      16.478
  H       93.297    -232.747      15.620
  H       93.232    -231.520      18.138
  H       91.574    -239.283      21.634
  H       91.395    -231.338      16.469
  H       90.799    -239.816      20.161
  H       90.777    -232.921      16.964
  P       96.118    -232.796      15.791
  C       97.284    -234.775      14.646
  O       96.212    -234.365      15.481
  O       97.421    -232.143      16.129
  O       95.491    -232.193      14.441
  H       96.210    -232.038      13.791
  H       97.416    -235.857      14.741
  H       98.217    -234.277      14.943
  H       97.052    -234.521      13.608
  H       87.966    -230.603      21.387
  H       89.307    -231.604      20.887
  H       87.681    -232.016      20.400

 3  4  5  6  7  8  9  10  11  12  13  23  27  28  29  30  32 0
 6-311+G(2d,p)
 ****
 34  35 0
 6-311+G(2d,p)
 ****
 1  2  14  15  16  17  18  19  20  21  22  24  25  26 0
 3-21G
 ****
 31  33  36  37  38  39  40  41  42  43  44  45  46 0
 3-21G
 ****


