%nproc=1
%NoSave
%Mem=1900MB
#P OB98/GEN NMR

erre ene a

0 1
  C     -237.216      18.002    -242.333
  O     -238.360      18.358    -243.088
  P     -239.426      19.393    -242.490
  C     -240.870      17.645    -241.211
  O     -239.996      18.750    -241.138
  C     -242.313      18.054    -240.886
  O     -243.175      16.932    -241.197
  C     -242.569      18.382    -239.417
  O     -243.785      19.128    -239.324
  C     -242.772      17.004    -238.824
  O     -243.465      17.051    -237.577
  C     -243.507      16.251    -239.961
  N     -243.094      14.836    -240.029
  C     -243.948      13.906    -239.442
  O     -245.036      14.206    -238.954
  N     -243.468      12.625    -239.359
  C     -242.226      12.219    -239.756
  O     -241.704      11.168    -239.402
  C     -241.477      13.186    -240.576
  C     -241.924      14.441    -240.654
  O     -240.649      19.272    -243.516
  O     -238.939      20.797    -242.368
  H     -242.902      17.579    -236.961
  H     -240.604      19.984    -244.184
  H     -244.024      11.982    -238.806
  H     -240.555      12.854    -241.036
  H     -241.363      15.188    -241.208
  H     -244.594      16.280    -239.825
  H     -241.793      16.545    -238.637
  H     -241.752      18.921    -238.928
  H     -242.606      18.893    -241.524
  H     -240.525      16.864    -240.524
  H     -240.843      17.205    -242.216
  P     -243.832      20.361    -238.295
  C     -245.657      19.198    -236.911
  O     -244.360      19.763    -236.903
  O     -244.530      21.588    -238.777
  O     -242.282      20.636    -237.993
  H     -242.172      21.534    -237.624
  H     -245.703      18.414    -236.150
  H     -245.900      18.762    -237.884
  H     -246.389      19.973    -236.669
  H     -236.624      17.306    -242.889
  H     -237.522      17.553    -241.411
  H     -236.637      18.878    -242.128

 3  4  5  6  7  8  9  10  11  12  13  23  28  29  30  31  32 0
 6-311+G(2d,p)
 ****
 33  34 0
 6-311+G(2d,p)
 ****
 1  2  14  15  16  17  18  19  20  21  22  24  25  26  27 0
 3-21G
 ****
 35  36  37  38  39  40  41  42  43  44  45 0
 3-21G
 ****


