%nproc=1
%NoSave
%Mem=1900MB
#P OB98/GEN NMR

erre ene a

0 1
  C       85.898     -37.922    1151.659
  O       84.739     -38.705    1151.442
  P       84.248     -39.648    1152.667
  C       86.022     -41.520    1152.251
  O       84.664     -41.146    1152.269
  C       86.142     -43.041    1152.248
  O       85.488     -43.591    1153.421
  C       85.484     -43.728    1151.031
  O       86.362     -43.693    1149.923
  C       85.241     -45.123    1151.583
  O       86.438     -45.927    1151.515
  C       84.843     -44.840    1153.033
  N       80.749     -47.191    1154.873
  C       82.028     -47.667    1154.672
  N       82.272     -48.946    1155.066
  N       82.996     -46.959    1154.146
  C       82.621     -45.716    1153.783
  C       81.355     -45.127    1153.917
  C       80.333     -45.905    1154.555
  O       79.211     -45.495    1154.847
  N       81.350     -43.849    1153.425
  C       82.602     -43.650    1153.024
  N       83.407     -44.738    1153.245
  O       82.658     -39.623    1152.527
  O       84.723     -39.202    1154.018
  H       86.852     -45.829    1150.632
  H       82.267     -38.976    1153.151
  H       80.065     -47.779    1155.301
  H       82.959     -42.723    1152.598
  H       85.206     -45.614    1153.718
  H       84.477     -45.662    1150.998
  H       81.572     -49.553    1155.441
  H       84.532     -43.244    1150.791
  H       83.202     -49.308    1154.928
  H       87.204     -43.311    1152.297
  H       86.530     -41.117    1153.126
  H       86.509     -41.096    1151.345
  P       85.912     -42.822    1148.639
  C       84.695     -44.812    1147.517
  O       85.718     -43.841    1147.427
  O       87.231     -42.011    1148.270
  O       84.762     -41.907    1148.905
  H       86.991     -41.108    1147.942
  H       84.343     -45.041    1146.488
  H       83.832     -44.459    1148.097
  H       85.086     -45.729    1147.962
  H       86.112     -37.351    1150.780
  H       86.726     -38.563    1151.878
  H       85.732     -37.260    1152.483

 3  4  5  6  7  8  9  10  11  12  23  26  30  31 0
 6-311+G(2d,p)
 ****
 33  35  36  37  38 0
 6-311+G(2d,p)
 ****
 1  2  13  14  15  16  17  18  19  20  21  22  24  25 0
 3-21G
 ****
 27  28  29  32  34  39  40  41  42  43  44  45  46  47  48  49 0
 3-21G
 ****


