%nproc=1
%NoSave
%Mem=1900MB
#P OB98/GEN NMR

erre ene a

0 1
  C      101.797    -221.237     -87.056
  O      102.826    -220.698     -86.232
  P      103.517    -221.651     -85.144
  C      105.729    -222.111     -86.523
  O      105.099    -221.650     -85.347
  C      106.990    -221.274     -86.786
  O      106.630    -219.921     -87.136
  C      107.919    -221.192     -85.577
  O      108.817    -222.285     -85.520
  C      108.604    -219.858     -85.799
  O      109.633    -219.983     -86.797
  C      107.431    -219.002     -86.337
  N      106.548    -218.335     -85.357
  C      107.105    -217.620     -84.297
  O      108.313    -217.502     -84.103
  N      106.217    -217.018     -83.446
  C      104.870    -216.910     -83.631
  O      104.130    -216.306     -82.865
  C      104.350    -217.551     -84.841
  C      105.191    -218.229     -85.627
  O      103.074    -223.119     -85.592
  O      103.125    -221.354     -83.729
  H      109.253    -220.474     -87.545
  H      102.507    -223.526     -84.910
  H      106.600    -216.559     -82.634
  H      103.293    -217.450     -85.053
  H      104.813    -218.710     -86.528
  H      107.802    -218.219     -87.012
  H      109.099    -219.511     -84.895
  H      107.334    -221.118     -84.654
  H      107.527    -221.713     -87.637
  H      105.052    -222.043     -87.379
  H      105.990    -223.167     -86.408
  P      109.084    -223.026     -84.126
  C      108.447    -225.254     -85.225
  O      109.437    -224.546     -84.506
  O      108.039    -222.848     -83.078
  O      110.505    -222.449     -83.661
  H      110.389    -221.698     -83.032
  H      108.867    -226.206     -85.556
  H      108.127    -224.684     -86.103
  H      107.587    -225.450     -84.578
  H      101.442    -220.480     -87.724
  H      100.990    -221.578     -86.442
  H      102.186    -222.058     -87.622

 3  4  5  6  7  8  9  10  11  12  13  23  28  29  30  31  32 0
 6-311+G(2d,p)
 ****
 33  34 0
 6-311+G(2d,p)
 ****
 1  2  14  15  16  17  18  19  20  21  22  24  25  26  27 0
 3-21G
 ****
 35  36  37  38  39  40  41  42  43  44  45 0
 3-21G
 ****


