%nproc=1
%NoSave
%Mem=1900MB
#P OB98/GEN NMR

erre ene a

0 1
  C     -266.673    -167.665     177.457
  O     -265.754    -168.739     177.390
  H     -267.610    -168.032     177.884
  H     -266.871    -167.276     176.455
  H     -266.281    -166.869     178.097
  P     -264.298    -168.401     176.807
  C     -263.693    -170.106     174.938
  O     -263.668    -169.796     176.325
  C     -263.257    -171.551     174.725
  O     -261.860    -171.694     175.079
  C     -263.998    -172.557     175.591
  O     -265.289    -172.856     175.089
  C     -263.041    -173.739     175.559
  O     -263.230    -174.533     174.381
  C     -261.671    -173.056     175.528
  N     -259.421    -176.014     179.032
  C     -259.881    -176.279     177.793
  N     -260.459    -175.431     176.914
  C     -260.509    -174.184     177.424
  C     -260.076    -173.763     178.667
  C     -259.505    -174.743     179.497
  N     -259.057    -174.484     180.773
  N     -260.338    -172.421     178.847
  C     -260.908    -172.032     177.727
  N     -261.029    -173.063     176.832
  O     -263.458    -168.035     178.121
  O     -264.259    -167.302     175.797
  H     -264.049    -175.045     174.525
  H     -263.395    -167.065     178.207
  H     -259.783    -177.309     177.463
  H     -261.257    -171.025     177.515
  H     -260.980    -173.541     174.827
  H     -263.193    -174.385     176.423
  H     -264.067    -172.187     176.626
  H     -263.366    -171.798     173.658
  H     -263.009    -169.437     174.402
  H     -264.710    -169.952     174.558
  H     -258.723    -175.247     181.338
  H     -259.220    -173.565     181.171
  P     -266.545    -172.594     176.044
  C     -267.622    -174.533     174.671
  O     -267.811    -173.313     175.373
  O     -266.852    -171.033     175.860
  O     -266.320    -172.951     177.479
  H     -267.156    -170.651     176.705
  H     -268.562    -174.874     174.289
  H     -267.219    -175.268     175.336
  H     -266.943    -174.376     173.859

 6  7  8  9  10  11  12  13  14  15  25  28  32  33  34  35 0
 6-311+G(2d,p)
 ****
 36  37  40 0
 6-311+G(2d,p)
 ****
 1  2  3  4  5  16  17  18  19  20  21  22  23  24 0
 3-21G
 ****
 26  27  29  30  31  38  39 41  42  43  44  45  46  47  48 0
 3-21G
 ****


