%nproc=1
%NoSave
%Mem=1900MB
#P OB98/GEN NMR

erre ene a

0 1
  C     -116.709     -81.738    -313.304
  O     -116.069     -81.619    -312.045
  P     -114.637     -80.904    -312.001
  C     -115.686     -78.514    -311.944
  O     -114.822     -79.429    -312.604
  C     -114.995     -77.157    -311.809
  O     -113.990     -77.207    -310.769
  C     -114.261     -76.720    -313.070
  O     -115.153     -76.193    -314.036
  C     -113.287     -75.683    -312.518
  O     -113.925     -74.405    -312.376
  C     -112.947     -76.277    -311.133
  N     -111.632     -76.907    -311.103
  C     -110.542     -76.047    -311.229
  O     -110.664     -74.832    -311.378
  N     -109.309     -76.636    -311.216
  C     -109.059     -77.979    -311.149
  O     -107.934     -78.455    -311.202
  C     -110.250     -78.842    -311.047
  C     -111.458     -78.276    -311.035
  O     -113.789     -81.671    -313.121
  O     -113.960     -80.943    -310.670
  H     -113.253     -73.795    -312.016
  H     -112.857     -81.743    -312.840
  H     -108.504     -76.033    -311.280
  H     -110.092     -79.912    -310.995
  H     -112.348     -78.895    -310.975
  H     -112.968     -75.491    -310.369
  H     -112.424     -75.541    -313.167
  H     -113.688     -77.563    -313.481
  H     -115.747     -76.411    -311.523
  H     -115.937     -78.903    -310.952
  H     -116.615     -78.419    -312.517
  P     -114.687     -76.269    -315.572
  C     -115.716     -78.526    -316.396
  O     -114.593     -77.835    -315.899
  O     -113.173     -75.773    -315.446
  O     -115.542     -75.449    -316.482
  H     -112.770     -76.035    -314.607
  H     -116.314     -77.894    -317.058
  H     -116.334     -78.862    -315.559
  H     -115.373     -79.405    -316.958
  H     -117.650     -82.232    -313.181
  H     -116.091     -82.308    -313.966
  H     -116.869     -80.764    -313.716

 3  4  5  6  7  8  9  10  11  12  13  23  28  29  30  31  32 0
 6-311+G(2d,p)
 ****
 33  34 0
 6-311+G(2d,p)
 ****
 1  2  14  15  16  17  18  19  20  21  22  24  25  26 0
 3-21G
 ****
 27  35  36  37  38  39  40  41  42  43  44  45 0
 3-21G
 ****


