%nproc=1
%NoSave
%Mem=1900MB
#P OB98/GEN NMR

erre ene a

0 1
  C     -238.730     227.515     202.495
  O     -238.538     226.265     201.824
  P     -238.021     225.007     202.666
  C     -235.765     224.015     203.453
  O     -236.425     225.125     202.858
  C     -234.266     224.289     203.619
  O     -233.591     224.306     202.322
  C     -233.991     225.657     204.279
  O     -232.806     225.586     205.093
  C     -233.696     226.556     203.091
  O     -232.968     227.715     203.487
  C     -232.937     225.587     202.189
  N     -230.630     228.558     198.706
  C     -230.338     228.304     200.008
  N     -230.989     227.486     200.864
  C     -232.023     226.881     200.252
  C     -232.433     227.027     198.937
  C     -231.687     227.928     198.146
  N     -231.997     228.209     196.827
  N     -233.537     226.250     198.668
  C     -233.825     225.669     199.828
  N     -232.917     225.998     200.798
  O     -238.499     223.672     202.198
  O     -238.571     225.315     204.148
  H     -232.133     227.410     203.907
  H     -238.912     224.491     204.544
  H     -229.485     228.844     200.405
  H     -234.677     225.031     200.007
  H     -231.895     225.458     202.509
  H     -234.633     226.876     202.636
  H     -234.815     226.035     204.894
  H     -233.814     223.480     204.199
  H     -235.911     223.125     202.818
  H     -231.480     228.946     196.382
  H     -232.868     227.855     196.439
  H     -236.245     223.778     204.410
  P     -232.857     226.405     206.487
  C     -231.318     228.251     207.521
  O     -231.489     227.234     206.570
  O     -233.191     225.551     207.664
  O     -233.968     227.520     206.169
  H     -233.829     228.010     205.337
  H     -230.284     228.589     207.499
  H     -231.543     227.875     208.522
  H     -231.976     229.093     207.290
  H     -239.076     228.246     201.795
  H     -237.802     227.838     202.920
  H     -239.455     227.395     203.272

 3  4  5  6  7  8  9  10  11  12  22  25  29  30  31  32 0
 6-311+G(2d,p)
 ****
 33  36  37 0
 6-311+G(2d,p)
 ****
 1  2  13  14  15  16  17  18  19  20  21  23  24  26 0
 3-21G
 ****
 27  28  34  35  38  39  40  41  42  43  44  45  46  47  48 0
 3-21G
 ****


