%nproc=1
%NoSave
%Mem=1900MB
#P OB98/GEN NMR

erre ene a

0 1
  C      -15.272     -73.838     247.791
  O      -15.198     -72.442     247.584
  H      -15.175     -74.037     248.862
  H      -14.458     -74.339     247.262
  H      -16.234     -74.223     247.445
  P      -15.504     -71.915     246.094
  C      -13.001     -72.028     245.303
  O      -14.327     -72.512     245.179
  C      -12.128     -72.551     244.159
  O      -11.822     -73.949     244.408
  C      -12.792     -72.457     242.782
  O      -11.790     -72.126     241.816
  C      -13.307     -73.865     242.537
  O      -13.468     -74.138     241.144
  C      -12.247     -74.712     243.260
  N      -12.756     -76.027     243.650
  C      -12.860     -76.988     242.637
  O      -12.557     -76.704     241.477
  N      -13.352     -78.230     242.949
  C      -13.771     -78.471     244.160
  N      -14.266     -79.719     244.400
  C      -13.724     -77.474     245.246
  C      -13.202     -76.290     244.927
  O      -15.141     -70.361     246.217
  O      -16.892     -72.193     245.620
  H      -12.624     -73.909     240.693
  H      -14.336     -70.188     246.737
  H      -14.098     -77.720     246.232
  H      -13.123     -75.499     245.671
  H      -11.369     -74.859     242.617
  H      -14.284     -73.994     243.019
  H      -13.597     -71.723     242.738
  H      -11.173     -72.012     244.178
  H      -14.297     -80.370     243.623
  H      -12.572     -72.339     246.262
  H      -14.665     -79.999     245.285
  H      -13.036     -70.933     245.282
  P      -11.752     -70.647     241.202
  C      -13.346     -70.836     239.176
  O      -13.164     -70.340     240.497
  O      -10.552     -70.320     240.371
  O      -11.814     -69.714     242.509
  H      -11.222     -68.946     242.355
  H      -14.320     -70.566     238.825
  H      -13.251     -71.902     239.179
  H      -12.604     -70.414     238.531

 6  7  8  9  10  11  12  13  14  15  16  26  30  31  32  33  35 0
 6-311+G(2d,p)
 ****
 37  38 0
 6-311+G(2d,p)
 ****
 1  2  3  4  5  17  18  19  20  21  22  23  24  25 0
 3-21G
 ****
 27  28  29  34  36  39  40  41  42  43  44  45  46 0
 3-21G
 ****


