%nproc=1
%NoSave
%Mem=1900MB
#P OB98/GEN NMR

erre ene a

0 1
  C      466.935     783.407     420.681
  O      466.136     782.319     420.253
  H      466.537     783.780     421.625
  H      466.895     784.207     419.938
  H      467.968     783.085     420.832
  P      466.661     781.501     418.972
  C      464.770     782.057     417.240
  O      465.342     781.125     418.137
  C      463.686     781.386     416.390
  O      464.156     780.079     415.984
  C      462.358     781.192     417.123
  O      461.291     781.400     416.191
  C      462.391     779.738     417.555
  O      461.086     779.213     417.765
  C      463.193     779.093     416.411
  N      463.839     777.849     416.814
  C      463.922     776.843     415.847
  O      463.445     777.024     414.726
  N      464.500     775.643     416.182
  C      464.896     775.444     417.401
  N      465.448     774.226     417.669
  C      464.780     776.460     418.468
  C      464.263     777.628     418.107
  O      467.101     780.113     419.634
  O      467.734     782.193     418.202
  H      460.590     779.848     418.344
  H      466.492     779.789     420.314
  H      465.118     776.240     419.474
  H      464.142     778.433     418.822
  H      462.527     778.884     415.555
  H      462.945     779.646     418.501
  H      462.229     781.865     417.972
  H      463.550     781.967     415.470
  H      465.490     773.553     416.923
  H      465.533     782.476     416.584
  H      465.743     773.941     418.599
  H      464.340     782.874     417.831
  P      460.579     782.834     416.114
  C      459.310     782.630     418.345
  O      459.207     782.782     416.945
  O      460.483     783.432     414.751
  O      461.508     783.744     417.064
  H      461.585     784.625     416.650
  H      458.330     782.610     418.775
  H      459.862     783.451     418.753
  H      459.816     781.714     418.568

 6  7  8  9  10  11  12  13  14  15  16  26  30  31  32  33  35 0
 6-311+G(2d,p)
 ****
 37  38 0
 6-311+G(2d,p)
 ****
 1  2  3  4  5  17  18  19  20  21  22  23  24  25 0
 3-21G
 ****
 27  28  29  34  36  39  40  41  42  43  44  45  46 0
 3-21G
 ****


