%nproc=1
%NoSave
%Mem=1900MB
#P OB98/GEN NMR

erre ene a

0 1
  C     1170.202     190.104     370.494
  O     1169.574     190.208     371.749
  P     1168.598     191.480     372.002
  C     1166.668     189.739     372.082
  O     1167.266     190.881     372.699
  C     1165.318     189.446     372.722
  O     1165.501     189.076     374.109
  C     1164.335     190.603     372.723
  O     1163.651     190.734     371.482
  C     1163.378     190.166     373.824
  O     1162.454     189.181     373.306
  C     1164.328     189.515     374.842
  N     1163.031     191.430     379.404
  C     1162.380     190.605     378.537
  N     1162.782     190.149     377.332
  C     1163.991     190.669     377.017
  C     1164.764     191.547     377.784
  C     1164.240     191.920     379.011
  N     1164.917     192.741     379.909
  N     1165.919     191.856     377.107
  C     1165.873     191.171     376.006
  N     1164.727     190.417     375.903
  O     1168.129     191.851     370.518
  O     1169.244     192.623     372.702
  H     1161.970     189.613     372.579
  H     1167.858     192.799     370.493
  H     1161.402     190.258     378.875
  H     1166.635     191.162     375.240
  H     1163.905     188.634     375.294
  H     1162.769     190.979     374.204
  H     1164.821     191.537     373.022
  H     1164.902     188.561     372.195
  H     1167.320     188.875     372.176
  H     1164.555     192.816     380.823
  H     1165.887     192.947     379.710
  H     1166.545     189.957     370.988
  P     1163.673     192.189     370.792
  C     1165.347     191.448     368.950
  O     1164.035     191.908     369.265
  O     1165.004     192.856     371.400
  O     1162.449     192.994     371.053
  H     1164.930     193.810     371.389
  H     1165.327     191.019     367.928
  H     1165.669     190.663     369.638
  H     1166.062     192.262     368.975
  H     1170.810     189.224     370.471
  H     1170.815     190.965     370.330
  H     1169.458     190.044     369.727

 3  4  5  6  7  8  9  10  11  12  22  25  29  30  31  32 0
 6-311+G(2d,p)
 ****
 33  36  37 0
 6-311+G(2d,p)
 ****
 1  2  13  14  15  16  17  18  19  20  21  23  24  26 0
 3-21G
 ****
 27  28  34  35  38  39  40  41  42  43  44  45  46  47  48 0
 3-21G
 ****


