%nproc=1
%NoSave
%Mem=1900MB
#P OB98/GEN NMR

erre ene a

0 1
  C      108.012     -86.729     -96.734
  O      108.397     -85.686     -97.606
  H      108.408     -86.546     -95.732
  H      106.920     -86.759     -96.680
  H      108.373     -87.689     -97.109
  P      109.976     -85.470     -97.800
  C      109.871     -84.077     -95.622
  O      110.568     -85.070     -96.360
  C      110.775     -83.506     -94.533
  O      111.038     -84.557     -93.566
  C      112.126     -82.982     -95.048
  O      112.374     -81.660     -94.554
  C      113.146     -83.925     -94.440
  O      114.371     -83.281     -94.109
  C      112.422     -84.452     -93.207
  N      113.903     -87.176     -89.161
  C      113.098     -86.096     -89.264
  N      112.665     -85.476     -90.380
  C      113.121     -86.102     -91.478
  C      113.929     -87.226     -91.532
  C      114.343     -87.759     -90.300
  N      115.208     -88.826     -90.194
  N      114.196     -87.576     -92.842
  C      113.596     -86.653     -93.566
  N      112.947     -85.733     -92.785
  O      110.057     -84.104     -98.635
  O      110.672     -86.585     -98.503
  H      114.860     -83.143     -94.941
  H      110.491     -84.286     -99.491
  H      112.763     -85.667     -88.323
  H      113.637     -86.576     -94.645
  H      112.497     -83.755     -92.362
  H      113.358     -84.730     -95.153
  H      112.186     -82.978     -96.140
  H      110.232     -82.711     -94.006
  H      108.986     -84.521     -95.155
  H      115.545     -89.069     -89.277
  H      115.626     -89.192     -91.039
  H      109.549     -83.285     -96.306
  P      112.175     -80.460     -95.607
  C      114.688     -80.631     -96.244
  O      113.344     -80.563     -96.706
  O      112.555     -79.161     -94.754
  O      110.791     -80.366     -96.156
  H      111.814     -78.526     -94.765
  H      115.350     -80.696     -97.082
  H      114.809     -81.496     -95.626
  H      114.915     -79.753     -95.677

 6  7  8  9  10  11  12  13  14  15  25  28  32  33  34  35 0
 6-311+G(2d,p)
 ****
 36  39  40 0
 6-311+G(2d,p)
 ****
 1  2  3  4  5  16  17  18  19  20  21  22  23  24 0
 3-21G
 ****
 26  27  29  30  31  37  38  41  42  43  44  45  46  47  48 0
 3-21G
 ****


