%nproc=1
%NoSave
%Mem=1900MB
#P OB98/GEN NMR

erre ene a

0 1
  C     -115.594    -309.438    -433.428
  O     -116.011    -309.636    -434.764
  H     -114.501    -309.476    -433.388
  H     -115.997    -310.223    -432.784
  H     -115.927    -308.458    -433.069
  P     -117.597    -309.716    -435.011
  C     -117.476    -307.297    -435.981
  O     -118.052    -308.176    -435.027
  C     -118.417    -307.134    -437.168
  O     -119.748    -306.785    -436.721
  C     -118.015    -306.029    -438.139
  O     -116.967    -306.419    -439.012
  C     -119.322    -305.825    -438.882
  O     -119.517    -306.896    -439.822
  C     -120.342    -305.912    -437.719
  N     -120.659    -304.607    -437.136
  C     -121.597    -303.822    -437.818
  O     -122.110    -304.227    -438.864
  N     -121.912    -302.582    -437.321
  C     -121.349    -302.161    -436.231
  N     -121.688    -300.916    -435.792
  C     -120.368    -302.958    -435.473
  C     -120.073    -304.152    -435.974
  O     -118.172    -310.236    -433.610
  O     -118.036    -310.518    -436.191
  H     -118.862    -306.773    -440.530
  H     -119.158    -310.200    -433.619
  H     -119.916    -302.559    -434.573
  H     -119.358    -304.792    -435.468
  H     -121.274    -306.380    -438.053
  H     -119.354    -304.889    -439.447
  H     -117.761    -305.102    -437.611
  H     -118.489    -308.106    -437.679
  H     -122.315    -300.371    -436.366
  H     -116.521    -307.722    -436.309
  H     -121.169    -300.437    -435.060
  H     -117.294    -306.317    -435.526
  P     -116.093    -305.251    -439.695
  C     -114.031    -305.672    -438.161
  O     -115.034    -304.758    -438.590
  O     -117.124    -304.037    -439.786
  O     -115.509    -305.599    -441.030
  H     -117.009    -303.538    -440.619
  H     -113.408    -305.201    -437.430
  H     -113.436    -305.968    -439.000
  H     -114.495    -306.535    -437.731

 6  7  8  9  10  11  12  13  14  15  16  26  30  31  32  33  35 0
 6-311+G(2d,p)
 ****
 37  38 0
 6-311+G(2d,p)
 ****
 1  2  3  4  5  17  18  19  20  21  22  23  24  25 0
 3-21G
 ****
 27  28  29  34  36  39  40  41  42  43  44  45  46 0
 3-21G
 ****


