%nproc=1
%NoSave
%Mem=1900MB
#P OB98/GEN NMR

erre ene a

0 1
  C       95.635      91.890    -509.646
  O       94.798      90.881    -510.170
  H       96.662      91.525    -509.637
  H       95.337      92.130    -508.622
  H       95.582      92.788    -510.269
  P       93.231      91.212    -510.297
  C       91.207      91.036    -508.655
  O       92.597      90.788    -508.877
  C       90.832      90.693    -507.205
  O       90.905      89.248    -507.025
  C       91.756      91.341    -506.165
  O       90.967      91.839    -505.087
  C       92.649      90.203    -505.704
  O       93.139      90.409    -504.380
  C       91.737      88.981    -505.875
  N       92.495      87.744    -506.051
  C       92.559      86.872    -504.940
  O       91.996      87.179    -503.893
  N       93.296      85.724    -505.048
  C       93.967      85.483    -506.134
  N       94.701      84.336    -506.166
  C       93.968      86.382    -507.300
  C       93.218      87.477    -507.197
  O       92.702      90.087    -511.307
  O       92.911      92.606    -510.722
  H       93.613      91.279    -504.366
  H       91.800      90.299    -511.646
  H       94.555      86.152    -508.175
  H       93.155      88.203    -508.006
  H       91.067      88.855    -505.006
  H       93.512      90.113    -506.365
  H       92.352      92.158    -506.582
  H       89.786      90.982    -507.047
  H       94.689      83.747    -505.344
  H       90.626      90.423    -509.350
  H       95.279      84.063    -506.950
  H       90.999      92.094    -508.849
  P       90.956      93.442    -504.914
  C       91.929      95.156    -503.225
  O       91.679      93.783    -503.522
  O       89.408      93.777    -504.644
  O       91.503      94.169    -506.096
  H       88.982      94.087    -505.476
  H       92.412      95.233    -502.273
  H       91.002      95.690    -503.199
  H       92.561      95.575    -503.980

 6  7  8  9  10  11  12  13  14  15  16  26  30  31  32  33  35 0
 6-311+G(2d,p)
 ****
 37  38 0
 6-311+G(2d,p)
 ****
 1  2  3  4  5  17  18  19  20  21  22  23  24  25 0
 3-21G
 ****
 27  28  29  34  36  39  40  41  42  43  44  45  46 0
 3-21G
 ****


