%nproc=1
%NoSave
%Mem=1900MB
#P OB98/GEN NMR

erre ene a

0 1
  C      533.017     262.022     495.139
  O      533.563     262.097     496.441
  H      533.692     261.436     494.513
  H      532.915     263.018     494.706
  H      532.042     261.524     495.164
  P      532.816     263.004     497.531
  C      534.283     265.070     497.007
  O      533.862     264.129     497.986
  C      535.376     265.988     497.569
  O      534.835     266.718     498.707
  C      536.626     265.239     498.060
  O      537.748     266.115     497.888
  C      536.308     265.065     499.534
  O      537.449     264.688     500.266
  C      535.674     266.421     499.845
  N      534.927     266.421     501.093
  C      535.634     266.790     502.238
  O      536.825     267.086     502.166
  N      534.979     266.790     503.444
  C      533.749     266.389     503.508
  N      533.163     266.398     504.737
  C      532.982     265.932     502.328
  C      533.625     265.976     501.164
  O      532.160     262.269     498.651
  O      531.746     263.833     496.673
  H      538.185     265.329     500.120
  H      530.852     263.467     496.819
  H      531.965     265.587     502.437
  H      533.149     265.660     500.242
  H      536.442     267.207     499.900
  H      535.572     264.264     499.675
  H      536.794     264.296     497.534
  H      535.634     266.733     496.805
  H      533.726     266.707     505.517
  H      533.408     265.661     496.722
  H      532.218     266.086     504.911
  H      534.660     264.549     496.121
  P      538.696     266.067     496.592
  C      540.594     264.526     497.408
  O      540.212     265.851     497.061
  O      538.500     267.219     495.660
  O      538.329     264.688     495.860
  H      538.455     264.796     494.896
  H      541.623     264.517     497.702
  H      540.458     263.883     496.564
  H      539.988     264.181     498.220

 6  7  8  9  10  11  12  13  14  15  16  26  30  31  32  33  35 0
 6-311+G(2d,p)
 ****
 37  38 0
 6-311+G(2d,p)
 ****
 1  2  3  4  5  17  18  19  20  21  22  23  24  25 0
 3-21G
 ****
 27  28  29  34  36  39  40  41  42  43  44  45  46 0
 3-21G
 ****


