%nproc=1
%NoSave
%Mem=1900MB
#P OB98/GEN NMR

erre ene a

0 1
  C     -287.767     -20.542       9.975
  O     -287.509     -20.058       8.670
  H     -288.849     -20.589      10.124
  H     -287.340     -19.872      10.727
  H     -287.354     -21.548      10.095
  P     -285.989     -19.821       8.231
  C     -285.961     -17.349       8.995
  O     -285.423     -18.654       9.172
  C     -284.976     -16.459       8.237
  O     -285.550     -15.157       8.013
  C     -283.666     -16.215       8.978
  O     -282.836     -17.357       8.913
  C     -283.152     -14.992       8.235
  O     -282.569     -15.360       6.974
  C     -284.464     -14.197       8.018
  N     -284.691     -13.162       9.021
  C     -283.774     -12.102       9.029
  O     -282.837     -12.086       8.233
  N     -283.944     -11.102       9.956
  C     -284.953     -11.130      10.768
  N     -285.062     -10.107      11.657
  C     -285.959     -12.207      10.766
  C     -285.763     -13.187       9.885
  O     -285.751     -19.605       6.767
  O     -285.225     -21.122       8.766
  H     -282.258     -14.529       6.565
  H     -285.167     -21.798       8.065
  H     -286.793     -12.187      11.456
  H     -286.456     -14.021       9.820
  H     -284.463     -13.716       7.029
  H     -282.386     -14.456       8.797
  H     -283.863     -15.929      10.016
  H     -284.794     -16.915       7.257
  H     -284.359      -9.378      11.607
  H     -286.150     -16.939       9.992
  H     -285.887      -9.940      12.218
  H     -286.917     -17.394       8.457
  P     -281.676     -17.612       9.989
  C     -280.007     -16.184       8.649
  O     -280.695     -16.344       9.881
  O     -281.000     -18.938       9.892
  O     -282.402     -17.366      11.393
  H     -282.958     -18.149      11.637
  H     -279.389     -15.312       8.696
  H     -280.717     -16.075       7.856
  H     -279.397     -17.044       8.467

 6  7  8  9  10  11  12  13  14  15  16  26  30  31  32  33  35 0
 6-311+G(2d,p)
 ****
 37  38 0
 6-311+G(2d,p)
 ****
 1  2  3  4  5  17  18  19  20  21  22  23  24  25 0
 3-21G
 ****
 27  28  29  34  36  39  40  41  42  43  44  45  46 0
 3-21G
 ****


