%nproc=1
%NoSave
%Mem=1900MB
#P OB98/GEN NMR

erre ene a

0 1
  C      -87.702     586.538     131.153
  O      -87.922     585.527     130.190
  H      -86.723     586.383     131.612
  H      -88.470     586.483     131.931
  H      -87.715     587.529     130.687
  P      -89.139     585.753     129.168
  C      -90.609     584.168     130.613
  O      -90.486     585.439     129.987
  C      -90.925     583.096     129.576
  O      -90.909     581.781     130.186
  C      -92.293     583.243     128.916
  O      -92.253     584.167     127.834
  C      -92.517     581.827     128.410
  O      -91.731     581.606     127.213
  C      -91.952     580.985     129.566
  N      -93.054     577.764     133.330
  C      -91.969     577.792     132.473
  N      -91.046     576.811     132.640
  N      -91.796     578.685     131.535
  C      -92.810     579.589     131.472
  C      -93.938     579.658     132.257
  C      -94.108     578.672     133.299
  O      -95.043     578.610     134.088
  N      -94.737     580.718     131.891
  C      -94.107     581.261     130.876
  N      -92.932     580.613     130.574
  O      -89.000     584.503     128.170
  O      -89.112     587.044     128.425
  H      -92.012     582.285     126.566
  H      -88.592     584.806     127.335
  H      -93.135     577.045     134.029
  H      -94.452     582.130     130.325
  H      -91.489     580.054     129.215
  H      -93.558     581.627     128.145
  H      -91.128     576.081     133.328
  H      -93.069     583.500     129.644
  H      -90.241     576.818     132.024
  H      -90.124     583.111     128.825
  H      -91.416     584.212     131.350
  H      -89.668     583.936     131.122
  P      -93.359     585.327     127.793
  C      -94.825     584.114     126.020
  O      -94.742     584.641     127.344
  O      -92.929     586.176     126.502
  O      -93.441     586.187     129.005
  H      -92.601     587.058     126.777
  H      -95.796     583.692     125.864
  H      -94.082     583.355     125.891
  H      -94.660     584.899     125.312

 6  7  8  9  10  11  12  13  14  15  26  29  33  34 0
 6-311+G(2d,p)
 ****
 36  38  39  40  41 0
 6-311+G(2d,p)
 ****
 1  2  3  4  5  16  17  18  19  20  21  22  23  24  25 0
 3-21G
 ****
 27  28  30  31  32  35  37  42  43  44  45  46  47 0
 3-21G
 ****
 48  49 0
 3-21G
 ****


