%nproc=1
%NoSave
%Mem=1900MB
#P OB98/GEN NMR

erre ene a

0 1
  C       36.880     123.362     -72.434
  O       36.386     123.186     -71.119
  P       35.172     124.081     -70.563
  C       33.582     123.880     -68.548
  O       34.530     123.211     -69.376
  C       32.749     122.861     -67.768
  O       31.996     122.064     -68.715
  C       33.546     121.858     -66.931
  O       33.925     122.322     -65.643
  C       32.514     120.739     -66.780
  O       31.566     121.096     -65.756
  C       31.838     120.730     -68.154
  N       30.868     116.646     -71.084
  C       30.062     117.427     -70.323
  N       30.403     118.479     -69.553
  C       31.717     118.741     -69.658
  C       32.665     118.044     -70.402
  C       32.188     116.948     -71.142
  N       33.007     116.168     -71.941
  N       33.918     118.601     -70.239
  C       33.734     119.621     -69.433
  N       32.421     119.757     -69.058
  O       34.220     124.549     -71.611
  O       35.886     125.279     -69.784
  H       30.911     120.371     -65.705
  H       35.249     126.009     -69.642
  H       29.013     117.159     -70.321
  H       34.505     120.286     -69.086
  H       30.761     120.532     -68.089
  H       32.958     119.780     -66.483
  H       34.414     121.470     -67.487
  H       32.033     123.409     -67.137
  H       32.914     124.465     -69.195
  H       32.561     115.488     -72.532
  H       33.953     116.489     -72.110
  H       34.104     124.570     -67.877
  P       35.484     122.195     -65.245
  C       37.102     123.700     -63.831
  O       35.827     123.521     -64.418
  O       36.392     121.895     -66.388
  O       35.467     121.058     -64.114
  H       35.019     121.307     -63.282
  H       37.182     124.726     -63.465
  H       37.894     123.530     -64.563
  H       37.218     123.014     -62.988
  H       37.682     122.675     -72.609
  H       37.237     124.364     -72.550
  H       36.095     123.180     -73.137

 3  4  5  6  7  8  9  10  11  12  22  25  29  30  31  32 0
 6-311+G(2d,p)
 ****
 33  36  37 0
 6-311+G(2d,p)
 ****
 1  2  13  14  15  16  17  18  19  20  21  23  24  26 0
 3-21G
 ****
 27  28  34  35  38  39  40  41  42  43  44  45  46  47  48 0
 3-21G
 ****


