%nproc=1
%NoSave
%Mem=1900MB
#P OB98/GEN NMR

erre ene a

0 1
  C       22.584    -484.989     769.191
  O       22.805    -485.897     768.154
  P       22.068    -485.812     766.740
  C       19.922    -486.872     767.757
  O       20.867    -486.910     766.708
  C       18.663    -487.738     767.484
  O       18.043    -487.293     766.245
  C       19.096    -489.201     767.247
  O       19.322    -490.057     768.342
  C       18.124    -489.719     766.211
  O       17.045    -490.473     766.777
  C       17.602    -488.448     765.539
  N       16.905    -490.026     760.750
  C       16.101    -490.204     761.842
  N       15.062    -491.073     761.661
  N       16.268    -489.598     762.999
  C       17.419    -488.850     763.055
  C       18.277    -488.573     762.001
  C       18.056    -489.213     760.730
  O       18.788    -489.137     759.751
  N       19.366    -487.827     762.430
  C       19.147    -487.665     763.707
  N       18.002    -488.296     764.141
  O       22.933    -485.669     765.522
  O       21.229    -484.435     766.904
  H       17.419    -491.308     767.117
  H       21.198    -483.990     766.026
  H       16.758    -490.573     759.913
  H       19.810    -487.151     764.383
  H       16.503    -488.442     765.550
  H       18.637    -490.418     765.495
  H       14.981    -491.646     760.863
  H       20.077    -489.162     766.747
  H       14.570    -491.360     762.507
  H       17.915    -487.617     768.266
  H       19.629    -485.830     767.906
  H       20.384    -487.201     768.706
  P       20.707    -490.741     768.765
  C       20.975    -492.276     766.729
  O       20.758    -492.217     768.119
  O       20.542    -491.055     770.313
  O       21.913    -489.896     768.508
  H       21.448    -491.128     770.725
  H       20.697    -493.256     766.349
  H       22.033    -492.112     766.503
  H       20.383    -491.511     766.219
  H       23.190    -485.254     770.032
  H       21.552    -485.014     769.473
  H       22.840    -484.003     768.863

 3  4  5  6  7  8  9  10  11  12  23  26  30  31 0
 6-311+G(2d,p)
 ****
 33  35  36  37  38 0
 6-311+G(2d,p)
 ****
 1  2  13  14  15  16  17  18  19  20  21  22  24  25 0
 3-21G
 ****
 27  28  29  32  34  39  40  41  42  43  44  45  46  47  48  49 0
 3-21G
 ****


