%nproc=1
%NoSave
%Mem=1900MB
#P OB98/GEN NMR

erre ene a

0 1
  C      228.012    -298.579    -436.149
  O      228.034    -297.419    -436.958
  H      228.945    -299.128    -436.299
  H      227.178    -299.227    -436.429
  H      227.931    -298.307    -435.092
  P      226.765    -296.443    -436.917
  C      228.308    -294.494    -437.615
  O      227.118    -295.220    -437.893
  C      228.671    -293.613    -438.804
  O      227.628    -292.651    -439.054
  C      229.960    -292.816    -438.613
  O      231.090    -293.630    -438.880
  C      229.757    -291.714    -439.640
  O      230.017    -292.227    -440.960
  C      228.260    -291.408    -439.474
  N      227.992    -286.423    -438.597
  C      228.407    -287.105    -439.725
  N      228.854    -286.348    -440.750
  N      228.402    -288.410    -439.830
  C      227.995    -289.034    -438.703
  C      227.575    -288.469    -437.520
  C      227.532    -287.024    -437.433
  O      227.155    -286.380    -436.461
  N      227.301    -289.423    -436.573
  C      227.518    -290.566    -437.199
  N      227.955    -290.383    -438.488
  O      226.299    -296.015    -435.559
  O      225.635    -297.242    -437.718
  H      229.849    -291.496    -441.581
  H      225.084    -297.773    -437.115
  H      228.038    -285.418    -438.572
  H      227.372    -291.547    -436.765
  H      227.790    -291.102    -440.415
  H      230.415    -290.858    -439.489
  H      229.144    -285.387    -440.616
  H      230.013    -292.358    -437.619
  H      229.211    -286.830    -441.565
  H      228.735    -294.255    -439.691
  H      229.104    -295.222    -437.422
  H      228.175    -293.875    -436.724
  P      232.189    -293.920    -437.746
  C      232.852    -296.160    -438.852
  O      233.277    -294.863    -438.453
  O      231.644    -294.453    -436.465
  O      232.977    -292.543    -437.590
  H      232.572    -291.926    -436.931
  H      233.670    -296.679    -439.307
  H      232.050    -296.072    -439.555
  H      232.516    -296.705    -437.995

 6  7  8  9  10  11  12  13  14  15  26  29  33  34 0
 6-311+G(2d,p)
 ****
 36  38  39  40  41 0
 6-311+G(2d,p)
 ****
 1  2  3  4  5  16  17  18  19  20  21  22  23  24  25 0
 3-21G
 ****
 27  28  30  31  32  35  37  42  43  44  45  46  47 0
 3-21G
 ****
 48  49 0
 3-21G
 ****


