%nproc=1
%NoSave
%Mem=1900MB
#P OB98/GEN NMR

erre ene a

0 1
  C       26.729    -247.839     -94.055
  O       27.443    -247.306     -92.958
  H       27.421    -248.259     -94.789
  H       26.074    -248.638     -93.694
  H       26.116    -247.063     -94.521
  P       28.462    -246.105     -93.271
  C       30.198    -245.822     -95.185
  O       29.552    -246.711     -94.283
  C       31.682    -246.161     -95.262
  O       32.312    -245.940     -93.979
  C       31.978    -247.613     -95.622
  O       31.888    -247.849     -97.016
  C       33.410    -247.736     -95.132
  O       34.301    -247.109     -96.072
  C       33.363    -246.933     -93.825
  N       35.427    -249.442     -89.871
  C       35.981    -248.742     -90.883
  N       35.363    -248.107     -91.900
  C       34.031    -248.247     -91.807
  C       33.323    -248.938     -90.836
  C       34.080    -249.553     -89.825
  N       33.519    -250.282     -88.798
  N       31.966    -248.889     -91.094
  C       31.860    -248.152     -92.181
  N       33.078    -247.747     -92.656
  O       29.284    -245.944     -91.907
  O       27.839    -244.826     -93.718
  H       35.202    -247.208     -95.709
  H       29.692    -245.059     -91.865
  H       37.068    -248.684     -90.876
  H       30.927    -247.884     -92.660
  H       34.297    -246.395     -93.628
  H       33.737    -248.772     -95.021
  H       31.343    -248.307     -95.054
  H       32.151    -245.478     -95.984
  H       30.079    -244.797     -94.825
  H       34.151    -250.830     -88.236
  H       32.532    -250.493     -88.842
  H       29.735    -245.911     -96.172
  P       31.256    -249.247     -97.489
  C       32.095    -251.709     -97.545
  O       32.387    -250.351     -97.223
  O       31.227    -249.113     -99.080
  O       29.910    -249.548     -96.918
  H       30.524    -249.671     -99.464
  H       32.942    -252.321     -97.313
  H       31.873    -251.788     -98.589
  H       31.251    -252.037     -96.975

 6  7  8  9  10  11  12  13  14  15  25  28  32  33  34  35 0
 6-311+G(2d,p)
 ****
 36  39  40 0
 6-311+G(2d,p)
 ****
 1  2  3  4  5  16  17  18  19  20  21  22  23  24 0
 3-21G
 ****
 26  27  29  30  31  37  38  41  42  43  44  45  46  47 0
 3-21G
 ****
 48 0
 3-21G
 ****


