%nproc=1
%NoSave
%Mem=1900MB
#P OB98/GEN NMR

erre ene a

0 1
  C      285.969     -74.296    -120.887
  O      287.090     -75.082    -120.556
  H      285.563     -73.862    -119.969
  H      285.202     -74.928    -121.344
  H      286.232     -73.486    -121.571
  P      288.135     -75.452    -121.712
  C      290.025     -75.778    -119.980
  O      289.301     -76.351    -121.062
  C      290.969     -76.785    -119.332
  O      290.210     -77.735    -118.553
  C      291.761     -77.597    -120.362
  O      292.964     -76.984    -120.793
  C      292.045     -78.890    -119.601
  O      293.255     -78.795    -118.838
  C      290.837     -79.026    -118.671
  N      286.647     -81.789    -117.670
  C      287.394     -81.002    -116.810
  N      286.994     -80.986    -115.521
  N      288.445     -80.320    -117.194
  C      288.779     -80.513    -118.488
  C      288.128     -81.282    -119.429
  C      286.929     -81.976    -119.018
  O      286.223     -82.665    -119.742
  N      288.789     -81.269    -120.637
  C      289.881     -80.569    -120.395
  N      289.880     -80.018    -119.128
  O      288.890     -74.067    -121.996
  O      287.536     -75.999    -122.974
  H      294.008     -78.774    -119.467
  H      289.156     -74.022    -122.934
  H      285.834     -82.266    -117.331
  H      290.679     -80.382    -121.110
  H      291.139     -79.324    -117.657
  H      292.172     -79.731    -120.291
  H      286.247     -81.561    -115.159
  H      291.135     -77.839    -121.227
  H      287.625     -80.580    -114.826
  H      291.637     -76.266    -118.635
  H      289.277     -75.438    -119.257
  H      290.581     -74.897    -120.318
  P      293.611     -77.336    -122.215
  C      294.171     -74.848    -122.839
  O      294.619     -76.169    -122.611
  O      292.382     -77.127    -123.221
  O      294.204     -78.701    -122.329
  H      291.969     -77.985    -123.439
  H      295.005     -74.227    -123.091
  H      293.702     -74.473    -121.954
  H      293.467     -74.844    -123.645

 6  7  8  9  10  11  12  13  14  15  26  29  33  34 0
 6-311+G(2d,p)
 ****
 36  38  39  40  41 0
 6-311+G(2d,p)
 ****
 1  2  3  4  5  16  17  18  19  20  21  22  23  24  25 0
 3-21G
 ****
 27  28  30  31  32  35  37  42  43  44  45  46  47 0
 3-21G
 ****
 48  49 0
 3-21G
 ****


