%nproc=1
%NoSave
%Mem=1900MB
#P OB98/GEN NMR

erre ene a

0 1
  C     -195.797     -14.874      90.267
  O     -195.957     -14.828      88.862
  H     -196.748     -14.609      90.737
  H     -195.037     -14.156      90.589
  H     -195.516     -15.880      90.588
  P     -194.690     -15.176      87.942
  C     -192.262     -14.291      87.900
  O     -193.623     -14.005      88.201
  C     -191.430     -13.014      87.976
  O     -191.817     -12.101      86.930
  C     -191.582     -12.254      89.293
  O     -190.765     -12.836      90.298
  C     -191.115     -10.870      88.869
  O     -189.676     -10.851      88.772
  C     -191.744     -10.750      87.468
  N     -194.487      -6.557      88.253
  C     -193.133      -6.779      88.435
  N     -192.419      -5.749      88.938
  N     -192.540      -7.915      88.166
  C     -193.394      -8.873      87.739
  C     -194.754      -8.779      87.535
  C     -195.390      -7.500      87.780
  O     -196.582      -7.255      87.618
  N     -195.292      -9.981      87.154
  C     -194.256     -10.794      87.093
  N     -193.080     -10.175      87.451
  O     -194.970     -15.428      86.491
  O     -194.027     -16.444      88.655
  H     -189.426     -11.605      88.204
  H     -194.365     -17.278      88.280
  H     -194.887      -5.664      88.494
  H     -194.298     -11.834      86.794
  H     -191.126     -10.154      86.784
  H     -191.406     -10.085      89.566
  H     -192.864      -4.974      89.418
  H     -192.631     -12.186      89.607
  H     -191.437      -5.909      89.125
  H     -190.382     -13.285      87.794
  H     -192.228     -14.711      86.888
  H     -191.864     -15.031      88.602
  P     -191.406     -13.435      91.645
  C     -192.886     -12.405      93.499
  O     -191.965     -12.162      92.442
  O     -190.495     -14.317      92.434
  O     -192.748     -14.158      91.163
  H     -192.615     -15.104      90.894
  H     -193.175     -11.474      93.941
  H     -192.424     -13.023      94.240
  H     -193.752     -12.900      93.111

 6  7  8  9  10  11  12  13  14  15  26  29  33  34 0
 6-311+G(2d,p)
 ****
 36  38  39  40  41 0
 6-311+G(2d,p)
 ****
 1  2  3  4  5  16  17  18  19  20  21  22  23  24  25 0
 3-21G
 ****
 27  28  30  31  32  35  37  42  43  44  45  46  47 0
 3-21G
 ****
 48  49 0
 3-21G
 ****


