%nproc=1
%NoSave
%Mem=1900MB
#P OB98/GEN NMR

erre ene a

0 1
  C      312.895     -59.914    -169.967
  O      311.516     -60.052    -169.684
  H      313.182     -58.872    -169.801
  H      313.108     -60.176    -171.006
  H      313.479     -60.549    -169.295
  P      310.789     -61.416    -170.113
  C      309.050     -60.358    -171.697
  O      309.270     -61.004    -170.447
  C      307.581     -59.973    -171.872
  O      306.757     -61.153    -171.989
  C      306.996     -59.205    -170.697
  O      307.532     -57.917    -170.510
  C      305.502     -59.363    -170.935
  O      304.998     -58.420    -171.880
  C      305.436     -60.793    -171.527
  N      304.917     -61.765    -170.571
  C      303.602     -61.574    -170.160
  O      302.899     -60.638    -170.542
  N      303.122     -62.483    -169.258
  C      303.827     -63.510    -168.704
  O      303.345     -64.280    -167.882
  C      305.225     -63.638    -169.148
  C      305.699     -62.773    -170.048
  O      310.910     -62.550    -169.139
  O      311.399     -61.738    -171.556
  H      304.086     -58.692    -172.096
  H      311.219     -62.674    -171.820
  H      302.166     -62.370    -168.958
  H      305.819     -64.435    -168.721
  H      306.727     -62.851    -170.393
  H      304.784     -60.807    -172.410
  H      304.923     -59.242    -170.017
  H      307.222     -59.760    -169.778
  H      307.486     -59.409    -172.805
  H      309.337     -61.057    -172.490
  H      309.684     -59.467    -171.765
  P      308.053     -57.369    -169.107
  C      306.413     -55.359    -169.426
  O      307.693     -55.811    -169.001
  O      309.418     -57.805    -168.682
  O      306.990     -58.028    -168.085
  H      307.473     -58.225    -167.257
  H      306.344     -54.300    -169.286
  H      305.654     -55.845    -168.850
  H      306.279     -55.591    -170.462

 6  7  8  9  10  11  12  13  14  15  16  26  31  32  33  34  35 0
 6-311+G(2d,p)
 ****
 36  37 0
 6-311+G(2d,p)
 ****
 1  2  3  4  5  17  18  19  20  21  22  23  24  25 0
 3-21G
 ****
 27  28  29  30  38  39  40  41  42  43  44  45 0
 3-21G
 ****


