%nproc=1
%NoSave
%Mem=1900MB
#P OB98/GEN NMR

erre ene a

0 1
  C      -55.518      31.843      70.387
  O      -56.108      30.613      70.002
  P      -57.274      30.023      70.935
  C      -55.707      28.242      71.992
  O      -56.563      29.355      72.209
  C      -55.358      27.557      73.315
  O      -54.763      28.539      74.210
  C      -56.557      26.936      74.048
  O      -56.075      25.756      74.701
  C      -56.909      28.017      75.055
  O      -57.729      27.570      76.120
  C      -55.512      28.491      75.445
  N      -53.045      31.530      78.731
  C      -52.744      30.309      78.235
  N      -53.446      29.564      77.355
  C      -54.564      30.206      76.978
  C      -55.012      31.442      77.412
  C      -54.195      32.119      78.332
  N      -54.510      33.361      78.845
  N      -56.218      31.763      76.824
  C      -56.496      30.735      76.048
  N      -55.517      29.781      76.092
  O      -57.797      28.761      70.104
  O      -58.378      30.983      71.250
  H      -58.614      27.331      75.782
  H      -58.767      28.672      70.168
  H      -51.815      29.872      78.590
  H      -57.391      30.627      75.450
  H      -55.009      27.781      76.113
  H      -57.458      28.815      74.541
  H      -57.380      26.664      73.380
  H      -54.596      26.793      73.117
  H      -54.777      28.584      71.527
  H      -53.969      33.668      79.640
  H      -55.457      33.691      78.702
  H      -56.190      27.542      71.302
  P      -56.995      24.441      74.706
  C      -57.750      25.057      77.084
  O      -58.160      24.789      75.757
  O      -56.084      23.436      75.557
  O      -57.408      23.929      73.370
  H      -55.788      23.840      76.392
  H      -58.623      25.372      77.661
  H      -57.007      25.860      77.097
  H      -57.334      24.153      77.535
  H      -54.762      32.113      69.679
  H      -55.078      31.739      71.357
  H      -56.269      32.605      70.416

 3  4  5  6  7  8  9  10  11  12  22  25  29  30  31  32 0
 6-311+G(2d,p)
 ****
 33  36  37 0
 6-311+G(2d,p)
 ****
 1  2  13  14  15  16  17  18  19  20  21  23  24  26 0
 3-21G
 ****
 27  28  34  35  38  39  40  41  42  43  44  45  46  47  48 0
 3-21G
 ****


