%nproc=1
%NoSave
%Mem=1900MB
#P OB98/GEN NMR

erre ene a

0 1
  C      -40.834     -24.263      18.943
  O      -40.290     -24.640      17.675
  P      -40.837     -23.868      16.377
  C      -42.700     -24.398      14.622
  O      -42.110     -24.707      15.872
  C      -43.346     -25.642      14.002
  O      -42.320     -26.639      13.716
  C      -44.410     -26.307      14.882
  O      -45.440     -26.782      14.002
  C      -43.664     -27.476      15.497
  O      -44.545     -28.497      15.941
  C      -42.748     -27.870      14.334
  N      -41.611     -28.682      14.759
  C      -41.841     -30.039      14.945
  O      -42.956     -30.548      14.845
  N      -40.752     -30.788      15.299
  C      -39.500     -30.306      15.556
  O      -38.558     -31.023      15.870
  C      -39.345     -28.847      15.453
  C      -40.393     -28.115      15.067
  O      -39.695     -24.196      15.310
  O      -41.081     -22.417      16.623
  H      -39.330     -25.093      15.395
  H      -44.021     -29.216      16.349
  H      -40.890     -31.781      15.408
  H      -38.382     -28.422      15.706
  H      -40.318     -27.038      15.003
  H      -43.311     -28.434      13.579
  H      -43.073     -27.131      16.353
  H      -44.840     -25.625      15.620
  H      -43.788     -25.350      13.041
  H      -41.937     -24.019      13.935
  H      -43.433     -23.596      14.757
  P      -46.904     -26.125      14.120
  C      -49.018     -26.592      15.591
  O      -47.701     -26.950      15.237
  O      -47.557     -26.650      12.752
  O      -46.923     -24.637      14.236
  H      -47.408     -27.597      12.598
  H      -49.457     -27.404      16.177
  H      -49.636     -26.431      14.705
  H      -49.005     -25.685      16.201
  H      -40.384     -24.853      19.714
  H      -41.891     -24.427      18.940
  H      -40.634     -23.228      19.123

 3  4  5  6  7  8  9  10  11  12  13  24  28  29  30  31  32 0
 6-311+G(2d,p)
 ****
 33  34 0
 6-311+G(2d,p)
 ****
 1  2  14  15  16  17  18  19  20  21  22  23  25  26  27 0
 3-21G
 ****
 35  36  37  38  39  40  41  42  43  44  45 0
 3-21G
 ****


