%nproc=1
%NoSave
%Mem=1900MB
#P OB98/GEN NMR

erre ene a

0 1
  C     -142.378     -75.901    -186.172
  O     -141.149     -75.310    -186.554
  P     -139.796     -76.132    -186.312
  C     -139.805     -77.095    -188.728
  O     -139.788     -77.368    -187.336
  C     -139.849     -78.398    -189.526
  O     -139.971     -78.090    -190.948
  C     -138.604     -79.280    -189.355
  O     -139.029     -80.648    -189.432
  C     -137.785     -78.932    -190.583
  O     -136.807     -79.912    -190.899
  C     -138.903     -78.787    -191.620
  N     -138.473     -78.081    -192.826
  C     -137.704     -78.791    -193.743
  O     -137.368     -79.965    -193.596
  N     -137.265     -78.084    -194.829
  C     -137.440     -76.746    -195.041
  O     -136.922     -76.146    -195.974
  C     -138.261     -76.046    -194.039
  C     -138.732     -76.735    -192.997
  O     -140.036     -76.821    -184.888
  O     -138.553     -75.309    -186.332
  H     -136.307     -79.588    -191.671
  H     -139.576     -76.323    -184.187
  H     -136.716     -78.584    -195.509
  H     -138.436     -74.989    -194.187
  H     -139.323     -76.240    -192.232
  H     -139.291     -79.776    -191.898
  H     -137.267     -77.981    -190.417
  H     -138.065     -79.101    -188.420
  H     -140.752     -78.953    -189.238
  H     -138.903     -76.541    -188.996
  H     -140.668     -76.464    -188.968
  P     -138.166     -81.749    -188.643
  C     -139.956     -82.444    -186.873
  O     -138.734     -81.796    -187.147
  O     -136.765     -80.983    -188.500
  O     -138.062     -83.057    -189.358
  H     -136.873     -80.050    -188.251
  H     -140.105     -83.315    -187.515
  H     -140.781     -81.742    -187.020
  H     -139.957     -82.773    -185.829
  H     -143.181     -75.231    -186.398
  H     -142.366     -76.102    -185.121
  H     -142.516     -76.816    -186.709

 3  4  5  6  7  8  9  10  11  12  13  23  28  29  30  31  32 0
 6-311+G(2d,p)
 ****
 33  34 0
 6-311+G(2d,p)
 ****
 1  2  14  15  16  17  18  19  20  21  22  24  25  26 0
 3-21G
 ****
 27  35  36  37  38  39  40  41  42  43  44  45 0
 3-21G
 ****


