%nproc=1
%NoSave
%Mem=1900MB
#P OB98/GEN NMR

erre ene a

0 1
  C      996.111    -595.138     450.280
  O      996.482    -595.133     448.916
  H      996.913    -595.603     450.856
  H      995.195    -595.715     450.426
  H      995.967    -594.114     450.627
  P      995.408    -594.545     447.876
  C      997.204    -592.896     447.060
  O      995.900    -593.039     447.600
  C      997.474    -591.433     446.696
  O      996.643    -591.079     445.558
  C      997.151    -590.445     447.829
  O      998.089    -589.362     447.795
  C      995.789    -589.913     447.445
  O      995.506    -588.643     448.033
  C      995.883    -589.908     445.923
  N      992.072    -586.983     444.224
  C      993.328    -586.693     444.635
  N      994.287    -587.538     445.053
  C      993.869    -588.819     444.956
  C      992.628    -589.267     444.558
  C      991.699    -588.288     444.186
  N      990.407    -588.566     443.806
  N      992.565    -590.651     444.647
  C      993.766    -591.015     445.080
  N      994.573    -589.944     445.304
  O      993.978    -594.671     448.277
  O      995.805    -595.291     446.517
  H      994.562    -588.449     447.883
  H      996.769    -595.277     446.372
  H      993.599    -585.638     444.646
  H      994.069    -592.036     445.267
  H      996.412    -589.017     445.533
  H      995.003    -590.616     447.781
  H      997.146    -590.911     448.810
  H      998.523    -591.338     446.368
  H      997.330    -593.515     446.173
  H      989.809    -587.791     443.555
  H      990.095    -589.522     443.757
  H      997.934    -593.233     447.808
  P      999.405    -589.467     448.724
  C     1001.059    -589.025     446.784
  O     1000.653    -589.931     447.809
  O      999.257    -590.212     449.983
  O      999.756    -587.922     448.991
  H     1000.005    -587.828     449.932
  H     1001.888    -589.440     446.249
  H     1001.349    -588.094     447.225
  H     1000.245    -588.862     446.109

 6  7  8  9  10  11  12  13  14  15  25  28  32  33  34  35 0
 6-311+G(2d,p)
 ****
 36  39  40 0
 6-311+G(2d,p)
 ****
 1  2  3  4  5  16  17  18  19  20  21  22  23  24 0
 3-21G
 ****
 26  27  29  30  31  37  38  41  42  43  44  45  46  47 0
 3-21G
 ****
 48 0
 3-21G
 ****


