%nproc=1
%NoSave
%Mem=1900MB
#P OB98/GEN NMR

erre ene a

0 1
  C     -153.174    -192.795     -55.530
  O     -153.966    -192.869     -56.697
  H     -153.458    -193.614     -54.863
  H     -153.341    -191.848     -55.011
  H     -152.114    -192.902     -55.780
  P     -153.793    -191.736     -57.816
  C     -154.173    -189.185     -57.927
  O     -154.434    -190.391     -57.217
  C     -155.270    -188.154     -57.637
  O     -156.527    -188.706     -58.099
  C     -155.403    -187.841     -56.139
  O     -155.340    -186.446     -55.849
  C     -156.667    -188.591     -55.735
  O     -157.342    -188.050     -54.619
  C     -157.488    -188.608     -57.030
  N     -158.454    -189.701     -57.105
  C     -159.718    -189.470     -56.570
  O     -160.092    -188.416     -56.064
  N     -160.590    -190.528     -56.643
  C     -160.328    -191.755     -57.171
  O     -161.152    -192.660     -57.213
  C     -158.967    -191.944     -57.700
  C     -158.106    -190.925     -57.643
  O     -154.270    -192.098     -59.183
  O     -152.223    -191.419     -57.809
  H     -156.700    -187.988     -53.883
  H     -151.799    -191.852     -58.572
  H     -161.514    -190.369     -56.266
  H     -158.720    -192.909     -58.119
  H     -157.095    -191.028     -58.026
  H     -158.034    -187.672     -57.151
  H     -156.387    -189.619     -55.474
  H     -154.554    -188.250     -55.578
  H     -155.069    -187.251     -58.224
  H     -154.145    -189.420     -58.994
  H     -153.198    -188.784     -57.624
  P     -153.994    -185.596     -55.759
  C     -152.410    -184.767     -53.839
  O     -153.573    -185.489     -54.220
  O     -153.973    -184.333     -56.554
  O     -152.886    -186.585     -56.390
  H     -152.226    -186.018     -56.836
  H     -152.296    -184.809     -52.776
  H     -152.507    -183.747     -54.147
  H     -151.551    -185.201     -54.307

 6  7  8  9  10  11  12  13  14  15  16  26  31  32  33  34  35 0
 6-311+G(2d,p)
 ****
 36  37 0
 6-311+G(2d,p)
 ****
 1  2  3  4  5  17  18  19  20  21  22  23  24  25 0
 3-21G
 ****
 27  28  29  30  38  39  40  41  42  43  44  45 0
 3-21G
 ****


