%nproc=1
%NoSave
%Mem=1900MB
#P OB98/GEN NMR

erre ene a

0 1
  C     -201.893    -561.440      39.378
  O     -200.744    -560.642      39.571
  P     -200.897    -559.126      40.063
  C     -198.419    -559.404      40.682
  O     -199.425    -558.509      40.222
  C     -197.290    -558.631      41.364
  O     -197.820    -557.787      42.408
  C     -196.251    -559.516      42.041
  O     -195.378    -560.091      41.085
  C     -195.592    -558.522      42.990
  O     -194.607    -557.734      42.298
  C     -196.785    -557.647      43.410
  N     -195.907    -557.473      48.431
  C     -195.129    -557.179      47.368
  N     -195.422    -557.287      46.059
  C     -196.660    -557.784      45.891
  C     -197.558    -558.166      46.877
  C     -197.149    -557.972      48.206
  N     -197.958    -558.215      49.297
  N     -198.717    -558.661      46.306
  C     -198.515    -558.586      45.006
  N     -197.318    -558.004      44.706
  O     -201.800    -558.921      41.234
  O     -201.469    -558.366      38.772
  H     -194.427    -556.949      42.849
  H     -202.336    -557.978      38.986
  H     -194.141    -556.793      47.604
  H     -199.210    -558.918      44.248
  H     -196.519    -556.583      43.445
  H     -195.086    -559.013      43.825
  H     -196.754    -560.298      42.625
  H     -196.821    -557.983      40.609
  H     -198.023    -559.954      39.821
  H     -197.618    -557.902      50.195
  H     -198.958    -558.288      49.144
  H     -198.867    -560.119      41.383
  P     -194.419    -561.302      41.506
  C     -193.786    -561.324      39.023
  O     -193.320    -561.453      40.350
  O     -195.112    -562.569      41.896
  O     -193.575    -560.699      42.728
  H     -193.360    -561.418      43.352
  H     -194.280    -562.249      38.715
  H     -192.930    -561.146      38.369
  H     -194.486    -560.487      38.934
  H     -201.599    -562.415      39.051
  H     -202.520    -560.989      38.637
  H     -202.431    -561.520      40.300

 3  4  5  6  7  8  9  10  11  12  22  25  29  30  31  32 0
 6-311+G(2d,p)
 ****
 33  36  37 0
 6-311+G(2d,p)
 ****
 1  2  13  14  15  16  17  18  19  20  21  23  24  26 0
 3-21G
 ****
 27  28  34  35  38  39  40  41  42  43  44  45  46  47  48 0
 3-21G
 ****


