%nproc=1
%NoSave
%Mem=1900MB
#P OB98/GEN NMR

erre ene a

0 1
  C      355.149    -283.365     -16.347
  O      354.785    -282.394     -17.314
  H      354.253    -283.667     -15.801
  H      355.875    -282.947     -15.646
  H      355.571    -284.246     -16.847
  P      355.973    -281.793     -18.209
  C      355.297    -283.171     -20.282
  O      355.412    -281.871     -19.718
  C      354.305    -283.160     -21.456
  O      353.039    -282.633     -20.979
  C      354.771    -282.286     -22.626
  O      354.407    -282.928     -23.856
  C      353.967    -281.007     -22.459
  O      353.793    -280.308     -23.692
  C      352.672    -281.532     -21.839
  N      349.493    -277.550     -22.160
  C      349.891    -278.463     -23.074
  N      350.730    -279.504     -22.893
  C      351.133    -279.578     -21.618
  C      350.822    -278.714     -20.576
  C      349.966    -277.645     -20.897
  N      349.579    -276.692     -19.983
  N      351.471    -279.096     -19.415
  C      352.158    -280.181     -19.741
  N      351.994    -280.501     -21.068
  O      357.318    -282.394     -17.997
  O      355.858    -280.228     -17.882
  H      353.298    -279.486     -23.502
  H      354.935    -279.924     -17.887
  H      349.481    -278.343     -24.075
  H      352.794    -280.754     -19.070
  H      351.965    -281.897     -22.594
  H      354.485    -280.335     -21.760
  H      355.849    -282.100     -22.612
  H      354.124    -284.193     -21.772
  H      354.950    -283.879     -19.520
  H      348.940    -275.965     -20.288
  H      349.894    -276.764     -19.025
  H      356.287    -283.482     -20.625
  P      355.548    -283.179     -24.954
  C      355.996    -285.712     -25.210
  O      355.257    -284.580     -25.676
  O      356.959    -282.970     -24.489
  O      355.167    -282.122     -26.103
  H      355.991    -281.754     -26.480
  H      355.711    -286.579     -25.769
  H      355.787    -285.872     -24.173
  H      357.043    -285.532     -25.339

 6  7  8  9  10  11  12  13  14  15  25  28  32  33  34  35 0
 6-311+G(2d,p)
 ****
 36  39  40 0
 6-311+G(2d,p)
 ****
 1  2  3  4  5  16  17  18  19  20  21  22  23  24 0
 3-21G
 ****
 26  27  29  30  31  37  38  41  42  43  44  45  46  47 0
 3-21G
 ****
 48 0
 3-21G
 ****


