%nproc=1
%NoSave
%Mem=1900MB
#P OB98/GEN NMR

erre ene a

0 1
  C      269.668     311.796    -225.848
  O      268.384     311.507    -226.366
  P      268.229     311.414    -227.966
  C      266.772     313.310    -229.077
  O      267.992     312.926    -228.467
  C      265.665     313.404    -228.020
  O      266.138     314.147    -226.880
  C      264.398     314.125    -228.490
  O      263.614     313.300    -229.324
  C      263.761     314.487    -227.149
  O      263.064     313.346    -226.610
  C      264.991     314.815    -226.288
  N      265.241     316.252    -226.155
  C      264.593     316.884    -225.096
  O      263.850     316.307    -224.308
  N      264.810     318.235    -224.988
  C      265.548     319.006    -225.846
  O      265.678     320.220    -225.728
  C      266.188     318.281    -226.963
  C      266.007     316.966    -227.057
  O      266.792     310.724    -228.080
  O      269.346     310.676    -228.623
  H      266.235     310.919    -227.304
  H      262.133     313.431    -226.909
  H      264.371     318.722    -224.212
  H      266.765     318.857    -227.671
  H      266.455     316.419    -227.880
  H      264.880     314.391    -225.285
  H      263.038     315.309    -227.241
  H      264.677     315.041    -229.024
  H      265.421     312.382    -227.693
  H      266.503     312.566    -229.829
  H      266.915     314.279    -229.568
  P      262.446     314.041    -230.168
  C      259.987     313.660    -229.346
  O      261.236     314.284    -229.143
  O      261.934     312.851    -231.103
  O      262.921     315.260    -230.909
  H      261.863     311.998    -230.640
  H      259.438     313.653    -228.403
  H      260.122     312.626    -229.692
  H      259.414     314.224    -230.086
  H      269.623     311.827    -224.779
  H      269.997     312.744    -226.219
  H      270.356     311.035    -226.154

 3  4  5  6  7  8  9  10  11  12  13  24  28  29  30  31  32 0
 6-311+G(2d,p)
 ****
 33  34 0
 6-311+G(2d,p)
 ****
 1  2  14  15  16  17  18  19  20  21  22  23  25  26  27 0
 3-21G
 ****
 35  36  37  38  39  40  41  42  43  44  45 0
 3-21G
 ****


