%nproc=1
%NoSave
%Mem=1900MB
#P OB98/GEN NMR

erre ene a

0 1
  C      -81.660    -369.896    -139.034
  O      -81.978    -369.470    -140.351
  P      -83.535    -369.367    -140.744
  C      -83.999    -371.814    -141.483
  O      -83.762    -370.472    -141.887
  C      -84.086    -372.734    -142.697
  O      -85.206    -372.357    -143.525
  C      -82.871    -372.690    -143.611
  O      -81.814    -373.508    -143.137
  C      -83.453    -373.266    -144.892
  O      -83.525    -374.703    -144.793
  C      -84.863    -372.668    -144.900
  N      -86.376    -370.764    -149.397
  C      -86.341    -372.026    -148.921
  N      -85.913    -372.455    -147.715
  C      -85.451    -371.428    -146.983
  C      -85.391    -370.093    -147.351
  C      -85.892    -369.764    -148.620
  N      -85.955    -368.474    -149.093
  N      -84.854    -369.333    -146.334
  C      -84.603    -370.189    -145.366
  N      -84.959    -371.466    -145.705
  O      -83.612    -367.984    -141.544
  O      -84.478    -369.408    -139.593
  H      -82.622    -375.017    -144.596
  H      -84.525    -367.634    -141.517
  H      -86.715    -372.793    -149.594
  H      -84.181    -369.929    -144.405
  H      -85.613    -373.373    -145.272
  H      -82.847    -373.040    -145.774
  H      -82.542    -371.660    -143.791
  H      -84.261    -373.755    -142.335
  H      -84.942    -371.860    -140.931
  H      -86.493    -368.301    -149.929
  H      -85.783    -367.718    -148.438
  H      -83.190    -372.135    -140.819
  P      -80.319    -373.039    -143.492
  C      -80.490    -373.574    -146.029
  O      -79.904    -373.892    -144.780
  O      -79.449    -373.675    -142.310
  O      -80.150    -371.560    -143.595
  H      -78.630    -373.158    -142.173
  H      -79.887    -374.018    -146.825
  H      -80.529    -372.491    -146.182
  H      -81.500    -373.988    -146.079
  H      -80.597    -369.918    -138.913
  H      -82.058    -370.876    -138.870
  H      -82.085    -369.215    -138.326

 3  4  5  6  7  8  9  10  11  12  22  25  29  30  31  32 0
 6-311+G(2d,p)
 ****
 33  36  37 0
 6-311+G(2d,p)
 ****
 1  2  13  14  15  16  17  18  19  20  21  23  24  26 0
 3-21G
 ****
 27  28  34  35  38  39  40  41  42  43  44  45  46  47  48 0
 3-21G
 ****


