%nproc=1
%NoSave
%Mem=1900MB
#P OB98/GEN NMR

erre ene a

0 1
  C       30.387     106.034     -37.047
  O       29.396     105.903     -36.042
  P       29.699     106.350     -34.532
  C       30.095     103.921     -33.790
  O       30.655     105.224     -33.904
  C       30.340     103.351     -32.394
  O       31.765     103.166     -32.209
  C       29.847     104.257     -31.272
  O       29.344     103.444     -30.208
  C       31.099     104.963     -30.779
  O       30.962     105.373     -29.409
  C       32.166     103.893     -31.032
  N       36.721     105.023     -28.944
  C       35.625     104.416     -28.436
  N       34.440     104.172     -29.039
  C       34.472     104.575     -30.320
  C       35.518     105.205     -30.979
  C       36.689     105.431     -30.234
  N       37.809     106.039     -30.760
  N       35.167     105.498     -32.284
  C       33.944     105.035     -32.412
  N       33.482     104.459     -31.256
  O       28.494     106.666     -33.714
  O       30.669     107.612     -34.674
  H       30.223     106.015     -29.374
  H       30.458     108.282     -33.996
  H       35.708     104.086     -27.405
  H       33.346     105.100     -33.309
  H       32.231     103.183     -30.199
  H       31.278     105.860     -31.384
  H       29.076     104.962     -31.602
  H       29.870     102.362     -32.332
  H       30.571     103.273     -34.531
  H       38.640     106.049     -30.189
  H       37.846     106.184     -31.760
  H       29.022     103.965     -34.006
  P       27.789     103.649     -29.841
  C       28.474     104.813     -27.615
  O       27.771     104.896     -28.833
  O       27.150     102.384     -29.373
  O       27.214     104.219     -31.224
  H       27.918     104.655     -31.754
  H       28.312     105.738     -27.053
  H       29.546     104.709     -27.803
  H       28.116     103.969     -27.020
  H       29.997     105.685     -37.980
  H       31.245     105.453     -36.780
  H       30.667     107.063     -37.140

 3  4  5  6  7  8  9  10  11  12  22  25  29  30  31  32 0
 6-311+G(2d,p)
 ****
 33  36  37 0
 6-311+G(2d,p)
 ****
 1  2  13  14  15  16  17  18  19  20  21  23  24  26 0
 3-21G
 ****
 27  28  34  35  38  39  40  41  42  43  44  45  46  47  48 0
 3-21G
 ****


