%nproc=1
%NoSave
%Mem=1900MB
#P OB98/GEN NMR

erre ene a

0 1
  C      290.554    -203.180     -25.817
  O      290.457    -201.757     -25.754
  P      291.780    -200.894     -25.472
  C      291.672    -201.038     -22.906
  O      292.414    -201.365     -24.073
  C      292.558    -200.920     -21.661
  O      291.923    -200.090     -20.649
  C      292.905    -202.262     -21.001
  O      294.241    -202.150     -20.495
  C      291.904    -202.327     -19.862
  O      292.281    -203.261     -18.858
  C      291.880    -200.857     -19.429
  N      290.714    -200.529     -18.626
  C      290.935    -200.170     -17.292
  O      292.068    -200.241     -16.818
  N      289.863    -199.769     -16.535
  C      288.665    -199.873     -17.022
  N      287.628    -199.448     -16.247
  C      288.379    -200.418     -18.364
  C      289.440    -200.695     -19.106
  O      291.629    -199.418     -25.627
  O      292.819    -201.481     -26.545
  H      293.257    -203.257     -18.772
  H      293.401    -200.756     -26.847
  H      287.362    -200.560     -18.690
  H      289.339    -201.096     -20.109
  H      292.784    -200.604     -18.855
  H      290.921    -202.629     -20.250
  H      292.847    -203.111     -21.685
  H      293.486    -200.413     -21.959
  H      287.836    -199.101     -15.319
  H      290.915    -201.812     -22.736
  H      286.668    -199.449     -16.572
  H      291.115    -200.111     -23.089
  P      295.426    -202.911     -21.265
  C      295.425    -205.106     -19.872
  O      295.183    -204.490     -21.116
  O      296.664    -202.676     -20.269
  O      295.763    -202.401     -22.628
  H      297.492    -202.734     -20.780
  H      294.950    -206.093     -19.864
  H      295.019    -204.516     -19.043
  H      296.505    -205.237     -19.727
  H      289.587    -203.595     -26.011
  H      290.922    -203.554     -24.885
  H      291.225    -203.457     -26.603

 3  4  5  6  7  8  9  10  11  12  13  23  27  28  29  30  32 0
 6-311+G(2d,p)
 ****
 34  35 0
 6-311+G(2d,p)
 ****
 1  2  14  15  16  17  18  19  20  21  22  24  25  26 0
 3-21G
 ****
 31  33  36  37  38  39  40  41  42  43  44  45  46 0
 3-21G
 ****


