%nproc=1
%NoSave
%Mem=1900MB
#P OB98/GEN NMR

erre ene a

0 1
  C       42.626     152.142     214.542
  O       43.911     152.588     214.173
  H       42.661     151.805     215.582
  H       42.319     151.299     213.919
  H       41.898     152.953     214.463
  P       44.164     153.103     212.672
  C       45.292     150.837     212.253
  O       45.418     152.248     212.135
  C       46.637     150.146     212.023
  O       47.070     150.371     210.654
  C       47.758     150.643     212.951
  O       48.459     149.526     213.502
  C       48.677     151.415     212.016
  O       50.016     151.498     212.496
  C       48.483     150.635     210.712
  N       48.962     151.376     209.554
  C       50.344     151.567     209.469
  O       51.088     151.113     210.343
  N       50.848     152.311     208.434
  C       50.038     152.858     207.583
  N       50.600     153.608     206.598
  C       48.570     152.706     207.650
  C       48.105     151.956     208.646
  O       44.304     154.583     212.538
  O       42.943     152.508     211.823
  H       50.327     150.590     212.708
  H       42.826     153.050     211.008
  H       47.937     153.187     206.918
  H       47.041     151.789     208.779
  H       49.008     149.669     210.751
  H       48.297     152.437     211.898
  H       47.394     151.273     213.763
  H       46.491     149.062     212.123
  H       51.611     153.689     206.593
  H       44.552     150.489     211.524
  H       50.072     154.099     205.893
  H       44.941     150.604     213.263
  P       48.006     149.058     214.968
  C       48.336     151.291     216.247
  O       48.787     149.960     216.040
  O       48.671     147.610     215.114
  O       46.523     148.998     215.141
  H       47.982     146.924     215.099
  H       48.950     151.765     216.984
  H       47.321     151.275     216.584
  H       48.398     151.836     215.328

 6  7  8  9  10  11  12  13  14  15  16  26  30  31  32  33  35 0
 6-311+G(2d,p)
 ****
 37  38 0
 6-311+G(2d,p)
 ****
 1  2  3  4  5  17  18  19  20  21  22  23  24  25 0
 3-21G
 ****
 27  28  29  34  36  39  40  41  42  43  44  45  46 0
 3-21G
 ****


