%nproc=1
%NoSave
%Mem=1900MB
#P OB98/GEN NMR

erre ene a

0 1
  C      -83.217     -76.235    -285.853
  O      -83.127     -76.106    -284.434
  P      -83.786     -74.779    -283.808
  C      -83.006     -72.361    -283.293
  O      -82.638     -73.657    -283.738
  C      -81.773     -71.470    -283.112
  O      -80.889     -72.012    -282.086
  C      -80.932     -71.314    -284.389
  O      -80.407     -69.981    -284.379
  C      -79.826     -72.333    -284.169
  O      -78.710     -72.145    -285.023
  C      -79.579     -72.126    -282.680
  N      -74.887     -73.742    -281.491
  C      -75.328     -72.630    -282.120
  N      -76.599     -72.274    -282.403
  C      -77.458     -73.207    -281.957
  C      -77.164     -74.391    -281.300
  C      -75.800     -74.649    -281.066
  N      -75.337     -75.790    -280.446
  N      -78.320     -75.099    -281.021
  C      -79.284     -74.380    -281.567
  N      -78.823     -73.195    -282.068
  O      -84.032     -75.174    -282.276
  O      -85.039     -74.352    -284.496
  H      -78.986     -72.250    -285.956
  H      -84.966     -75.426    -282.137
  H      -74.553     -71.938    -282.445
  H      -80.323     -74.669    -281.629
  H      -79.038     -71.193    -282.476
  H      -80.220     -73.340    -284.361
  H      -81.503     -71.467    -285.311
  H      -82.108     -70.483    -282.764
  H      -83.541     -72.428    -282.341
  H      -74.345     -75.889    -280.326
  H      -75.988     -76.495    -280.126
  H      -83.711     -71.923    -284.009
  P      -81.023     -68.896    -285.390
  C      -80.018     -67.652    -287.393
  O      -79.960     -68.812    -286.590
  O      -80.705     -67.541    -284.596
  O      -82.459     -69.071    -285.749
  H      -79.774     -67.510    -284.314
  H      -79.194     -67.684    -288.112
  H      -79.911     -66.757    -286.775
  H      -80.964     -67.623    -287.938
  H      -82.750     -77.148    -286.159
  H      -82.723     -75.408    -286.318
  H      -84.246     -76.246    -286.146

 3  4  5  6  7  8  9  10  11  12  22  25  29  30  31  32 0
 6-311+G(2d,p)
 ****
 33  36  37 0
 6-311+G(2d,p)
 ****
 1  2  13  14  15  16  17  18  19  20  21  23  24  26 0
 3-21G
 ****
 27  28  34  35  38  39  40  41  42  43  44  45  46  47  48 0
 3-21G
 ****


