%nproc=1
%NoSave
%Mem=1900MB
#P OB98/GEN NMR

erre ene a

0 1
  C      236.035     135.902     381.407
  O      234.860     135.172     381.758
  P      234.565     134.902     383.310
  C      232.468     136.331     383.785
  O      232.984     135.022     383.559
  C      231.020     136.260     384.296
  O      230.538     137.611     384.529
  C      230.022     135.628     383.319
  O      229.826     134.217     383.371
  C      228.710     136.265     383.776
  O      228.180     135.536     384.898
  C      229.128     137.663     384.225
  N      225.500     140.046     381.519
  C      225.435     139.073     382.451
  N      226.451     138.492     383.124
  C      227.629     139.023     382.762
  C      227.847     140.021     381.827
  C      226.714     140.543     381.182
  N      226.777     141.524     380.224
  N      229.195     140.297     381.716
  C      229.778     139.467     382.558
  N      228.875     138.686     383.223
  O      235.426     135.642     384.278
  O      234.804     133.320     383.436
  H      228.917     135.425     385.530
  H      235.227     133.131     384.297
  H      224.437     138.710     382.687
  H      230.846     139.397     382.716
  H      228.610     137.978     385.138
  H      227.943     136.246     382.996
  H      230.239     135.929     382.288
  H      230.999     135.723     385.250
  H      232.505     136.905     382.857
  H      225.921     141.812     379.777
  H      227.679     141.866     379.920
  H      233.134     136.828     384.492
  P      230.430     133.248     382.249
  C      232.280     131.984     383.596
  O      230.987     131.968     383.036
  O      231.411     133.883     381.326
  O      229.116     132.685     381.533
  H      228.578     132.094     382.085
  H      232.383     131.120     384.264
  H      232.443     132.897     384.173
  H      233.027     131.905     382.803
  H      236.090     135.998     380.343
  H      236.899     135.380     381.763
  H      235.997     136.874     381.852

 3  4  5  6  7  8  9  10  11  12  22  25  29  30  31  32 0
 6-311+G(2d,p)
 ****
 33  36  37 0
 6-311+G(2d,p)
 ****
 1  2  13  14  15  16  17  18  19  20  21  23  24  26 0
 3-21G
 ****
 27  28  34  35  38  39  40  41  42  43  44  45  46  47  48 0
 3-21G
 ****


