%nproc=1
%NoSave
%Mem=1900MB
#P OB98/GEN NMR

erre ene a

0 1
  C      392.350      31.291     659.959
  O      391.059      30.724     659.893
  H      392.997      30.771     659.250
  H      392.759      31.165     660.965
  H      392.328      32.353     659.698
  P      389.841      31.482     660.613
  C      389.207      32.634     658.394
  O      389.567      32.813     659.759
  C      388.267      33.758     657.930
  O      388.955      35.036     658.082
  C      387.839      33.641     656.456
  O      386.523      34.207     656.350
  C      388.853      34.531     655.766
  O      388.428      34.896     654.475
  C      388.973      35.668     656.788
  N      390.182      36.467     656.586
  C      390.309      37.101     655.361
  O      389.484      36.984     654.448
  N      391.445      37.842     655.175
  C      392.470      37.958     656.066
  O      393.483      38.609     655.838
  C      392.306      37.230     657.335
  C      391.184      36.531     657.540
  O      389.991      31.702     662.081
  O      388.560      30.580     660.274
  H      388.565      34.153     653.848
  H      387.906      30.644     660.992
  H      391.545      38.317     654.292
  H      393.103      37.293     658.059
  H      391.026      35.987     658.461
  H      388.108      36.340     656.721
  H      389.813      34.011     655.661
  H      387.846      32.615     656.087
  H      387.398      33.783     658.591
  H      388.700      31.671     658.302
  H      390.110      32.627     657.776
  P      385.279      33.376     655.760
  C      384.207      32.847     658.048
  O      384.809      32.313     656.867
  O      385.519      32.785     654.408
  O      384.075      34.430     655.718
  H      383.447      34.182     655.008
  H      383.938      32.046     658.705
  H      383.330      33.400     657.783
  H      384.902      33.495     658.541

 6  7  8  9  10  11  12  13  14  15  16  26  31  32  33  34  35 0
 6-311+G(2d,p)
 ****
 36  37 0
 6-311+G(2d,p)
 ****
 1  2  3  4  5  17  18  19  20  21  22  23  24  25 0
 3-21G
 ****
 27  28  29  30  38  39  40  41  42  43  44  45 0
 3-21G
 ****


