%nproc=1
%NoSave
%Mem=1900MB
#P OB98/GEN NMR

erre ene a

0 1
  C      -83.726      36.930     110.703
  O      -83.615      36.343     111.985
  H      -82.807      37.484     110.493
  H      -84.568      37.625     110.684
  H      -83.857      36.158     109.940
  P      -84.785      35.328     112.415
  C      -87.109      35.700     113.577
  O      -85.826      36.210     113.257
  C      -88.133      36.832     113.650
  O      -87.774      37.715     114.742
  C      -88.214      37.674     112.377
  O      -89.576      38.047     112.163
  C      -87.386      38.903     112.710
  O      -87.755      40.026     111.910
  C      -87.646      39.051     114.215
  N      -86.582      39.790     114.892
  C      -86.914      41.053     115.393
  O      -88.050      41.502     115.237
  N      -85.945      41.794     116.019
  C      -84.729      41.346     116.078
  N      -83.810      42.137     116.692
  C      -84.322      40.043     115.516
  C      -85.289      39.322     114.953
  O      -84.051      34.439     113.525
  O      -85.368      34.551     111.284
  H      -87.158      40.773     112.142
  H      -83.484      34.954     114.123
  H      -83.293      39.720     115.576
  H      -85.079      38.349     114.523
  H      -88.595      39.572     114.394
  H      -86.324      38.698     112.528
  H      -87.832      37.163     111.493
  H      -89.108      36.401     113.902
  H      -84.126      43.032     117.047
  H      -87.079      35.174     114.536
  H      -82.828      41.913     116.749
  H      -87.391      34.981     112.801
  P      -90.161      38.058     110.672
  C      -89.975      39.497     108.541
  O      -89.563      39.323     109.887
  O      -91.637      37.880     110.552
  O      -89.388      36.832     109.978
  H      -90.017      36.377     109.385
  H      -89.508      40.370     108.135
  H      -91.038      39.612     108.505
  H      -89.690      38.640     107.967

 6  7  8  9  10  11  12  13  14  15  16  26  30  31  32  33  35 0
 6-311+G(2d,p)
 ****
 37  38 0
 6-311+G(2d,p)
 ****
 1  2  3  4  5  17  18  19  20  21  22  23  24  25 0
 3-21G
 ****
 27  28  29  34  36  39  40  41  42  43  44  45  46 0
 3-21G
 ****


