%nproc=1
%NoSave
%Mem=1900MB
#P OB98/GEN NMR

erre ene a

0 1
  C     -254.055     542.921    -150.344
  O     -255.370     543.167    -149.876
  H     -254.079     542.214    -151.176
  H     -253.628     543.864    -150.692
  H     -253.434     542.526    -149.534
  P     -256.169     541.905    -149.290
  C     -257.801     540.465    -150.707
  O     -256.477     540.948    -150.542
  C     -257.898     539.607    -151.965
  O     -257.545     540.387    -153.124
  C     -256.968     538.399    -151.980
  O     -257.489     537.317    -151.224
  C     -256.954     538.074    -153.472
  O     -258.153     537.362    -153.828
  C     -256.969     539.475    -154.100
  N     -253.475     539.708    -157.840
  C     -254.739     539.215    -157.808
  N     -255.615     539.214    -156.783
  C     -255.075     539.801    -155.702
  C     -253.818     540.369    -155.584
  C     -252.991     540.298    -156.722
  N     -251.680     540.743    -156.713
  N     -253.625     540.868    -154.306
  C     -254.740     540.591    -153.665
  N     -255.647     539.957    -154.466
  O     -257.600     542.529    -148.926
  O     -255.537     541.241    -148.111
  H     -258.903     537.940    -153.589
  H     -257.620     542.746    -147.973
  H     -255.086     538.768    -158.732
  H     -254.925     540.829    -152.627
  H     -257.597     539.519    -154.998
  H     -256.101     537.452    -153.767
  H     -255.955     538.669    -151.659
  H     -258.947     539.295    -152.079
  H     -258.490     541.313    -150.794
  H     -251.079     540.241    -157.365
  H     -251.300     540.924    -155.793
  H     -258.076     539.878    -149.823
  P     -256.658     535.947    -151.202
  C     -256.513     533.862    -152.730
  O     -257.012     535.183    -152.573
  O     -257.412     535.084    -150.087
  O     -255.206     536.088    -150.895
  H     -256.773     534.802    -149.400
  H     -256.820     533.475    -153.679
  H     -256.899     533.240    -151.950
  H     -255.444     533.876    -152.680

 6  7  8  9  10  11  12  13  14  15  25  28  32  33  34  35 0
 6-311+G(2d,p)
 ****
 36  39  40 0
 6-311+G(2d,p)
 ****
 1  2  3  4  5  16  17  18  19  20  21  22  23  24 0
 3-21G
 ****
 26  27  29  30  31  37  38  41  42  43  44  45  46  47  48 0
 3-21G
 ****


