%nproc=1
%NoSave
%Mem=1900MB
#P OB98/GEN NMR

erre ene a

0 1
  C      324.870    -894.880     -50.637
  O      324.088    -896.070     -50.540
  P      323.751    -896.650     -49.079
  C      321.343    -895.550     -49.143
  O      322.541    -895.850     -48.438
  C      320.159    -895.600     -48.174
  O      319.966    -896.950     -47.672
  C      320.322    -894.700     -46.957
  O      319.887    -893.380     -47.210
  C      319.502    -895.420     -45.904
  O      318.097    -895.160     -46.108
  C      319.825    -896.890     -46.227
  N      321.042    -897.500     -45.605
  C      320.956    -898.680     -44.888
  O      319.897    -899.310     -44.724
  N      322.109    -899.180     -44.368
  C      323.362    -898.700     -44.614
  O      324.390    -899.210     -44.168
  C      323.444    -897.540     -45.497
  C      322.287    -896.980     -45.927
  O      325.016    -896.190     -48.192
  O      323.548    -898.130     -49.032
  H      317.617    -895.610     -45.390
  H      325.518    -896.970     -47.886
  H      322.054    -900.000     -43.786
  H      324.421    -897.140     -45.767
  H      322.329    -896.110     -46.581
  H      318.992    -897.550     -45.960
  H      319.731    -895.060     -44.903
  H      321.381    -894.710     -46.625
  H      319.251    -895.330     -48.721
  H      321.190    -896.260     -49.959
  H      321.416    -894.560     -49.590
  P      320.931    -892.250     -47.648
  C      319.436    -892.110     -49.725
  O      320.756    -892.100     -49.252
  O      322.356    -892.450     -47.182
  O      320.287    -890.890     -47.114
  H      320.686    -890.660     -46.241
  H      319.430    -891.840     -50.794
  H      318.819    -891.380     -49.185
  H      319.011    -893.120     -49.615
  H      325.006    -894.625     -51.667
  H      325.824    -895.042     -50.181
  H      324.366    -894.080     -50.135

 3  4  5  6  7  8  9  10  11  12  13  23  28  29  30  31  32 0
 6-311+G(2d,p)
 ****
 33  34 0
 6-311+G(2d,p)
 ****
 1  2  14  15  16  17  18  19  20  21  22  24  25  26  27 0
 3-21G
 ****
 35  36  37  38  39  40  41  42  43  44  45 0
 3-21G
 ****


