%nproc=1
%NoSave
%Mem=1900MB
#P OB98/GEN NMR

erre ene a

0 1
  C      193.430    -291.862    -161.287
  O      194.417    -291.096    -160.603
  P      195.012    -291.442    -159.164
  C      197.034    -289.760    -159.205
  O      195.803    -290.165    -158.619
  C      196.803    -288.725    -160.316
  O      196.209    -287.530    -159.725
  C      198.106    -288.291    -160.996
  O      198.000    -288.173    -162.410
  C      198.493    -287.043    -160.223
  O      199.406    -286.207    -160.916
  C      197.131    -286.432    -159.905
  N      198.706    -282.043    -157.827
  C      199.050    -282.610    -159.037
  N      199.941    -281.934    -159.793
  N      198.575    -283.750    -159.465
  C      197.754    -284.360    -158.581
  C      197.352    -283.906    -157.346
  C      197.844    -282.618    -156.904
  O      197.556    -282.061    -155.850
  N      196.504    -284.798    -156.738
  C      196.410    -285.796    -157.592
  N      197.148    -285.573    -158.734
  O      195.698    -292.761    -159.041
  O      193.709    -291.484    -158.213
  H      199.635    -285.463    -160.329
  H      193.898    -292.149    -157.520
  H      199.085    -281.151    -157.559
  H      195.818    -286.692    -157.447
  H      196.757    -285.812    -160.724
  H      198.991    -287.365    -159.301
  H      200.437    -281.119    -159.472
  H      198.886    -289.052    -160.864
  H      200.354    -282.457    -160.566
  H      196.090    -289.136    -161.039
  H      197.478    -290.668    -159.629
  H      197.719    -289.380    -158.446
  P      198.959    -288.770    -163.538
  C      198.002    -289.467    -165.814
  O      198.361    -288.385    -164.973
  O      198.740    -290.354    -163.472
  O      200.406    -288.441    -163.365
  H      199.582    -290.793    -163.243
  H      197.868    -289.091    -166.832
  H      197.061    -289.903    -165.470
  H      198.782    -290.232    -165.817
  H      193.214    -291.405    -162.230
  H      192.538    -291.902    -160.698
  H      193.796    -292.854    -161.447

 3  4  5  6  7  8  9  10  11  12  23  26  30  31 0
 6-311+G(2d,p)
 ****
 33  35  36  37  38 0
 6-311+G(2d,p)
 ****
 1  2  13  14  15  16  17  18  19  20  21  22  24  25 0
 3-21G
 ****
 27  28  29  32  34  39  40  41  42  43  44  45  46  47  48  49 0
 3-21G
 ****


