%nproc=1
%NoSave
%Mem=1900MB
#P OB98/GEN NMR

erre ene a

0 1
  C       51.153     211.765     100.979
  O       51.235     213.012     101.642
  H       51.193     211.936      99.902
  H       50.210     211.273     101.224
  H       51.992     211.121     101.266
  P       51.428     212.990     103.234
  C       53.686     214.239     103.585
  O       52.265     214.310     103.612
  C       54.281     215.646     103.677
  O       54.003     216.347     102.423
  C       53.700     216.499     104.813
  O       54.749     217.326     105.339
  C       52.686     217.381     104.105
  O       52.386     218.588     104.793
  C       53.393     217.606     102.761
  N       52.472     218.045     101.711
  C       52.278     219.418     101.558
  O       52.884     220.285     102.187
  N       51.331     219.778     100.632
  C       50.567     218.931      99.884
  O       49.715     219.319      99.084
  C       50.811     217.495     100.095
  C       51.734     217.127     100.983
  O       52.484     211.808     103.451
  O       50.182     212.796     104.033
  H       52.025     210.953     103.568
  H       51.963     218.341     105.645
  H       51.178     220.770     100.511
  H       50.216     216.794      99.525
  H       51.924     216.070     101.182
  H       54.196     218.344     102.873
  H       51.745     216.828     103.961
  H       53.246     215.918     105.624
  H       55.370     215.562     103.762
  H       54.006     213.771     102.653
  H       54.031     213.626     104.425
  P       54.739     217.614     106.919
  C       57.324     217.273     107.234
  O       56.208     218.160     107.265
  O       54.719     216.124     107.509
  O       53.604     218.485     107.347
  H       55.231     215.496     106.964
  H       58.213     217.810     107.490
  H       57.426     216.862     106.251
  H       57.170     216.481     107.937

 6  7  8  9  10  11  12  13  14  15  16  27  31  32  33  34  35 0
 6-311+G(2d,p)
 ****
 36  37 0
 6-311+G(2d,p)
 ****
 1  2  3  4  5  17  18  19  20  21  22  23  24  25 0
 3-21G
 ****
 26  28  29  30  38  39  40  41  42  43  44  45 0
 3-21G
 ****


