%nproc=1
%NoSave
%Mem=1900MB
#P OB98/GEN NMR

erre ene a

0 1
  C     -248.650     102.642     615.865
  O     -248.505     101.405     616.561
  P     -247.242     101.000     617.457
  C     -248.136     101.782     619.799
  O     -247.207     101.965     618.738
  C     -247.464     101.261     621.105
  O     -246.585     102.302     621.619
  C     -248.522     101.011     622.172
  O     -249.226      99.784     622.187
  C     -247.821     101.343     623.484
  O     -247.244     100.194     624.103
  C     -246.728     102.333     623.055
  N     -247.490     105.502     627.009
  C     -247.346     104.131     627.001
  N     -247.476     103.502     628.192
  N     -247.120     103.422     625.924
  C     -247.111     104.161     624.788
  C     -247.254     105.515     624.648
  C     -247.450     106.291     625.862
  O     -247.573     107.523     625.920
  N     -247.202     105.909     623.338
  C     -247.051     104.783     622.678
  N     -246.978     103.691     623.517
  O     -245.961     100.819     616.714
  O     -247.661      99.578     618.075
  H     -246.745     100.483     624.884
  H     -246.827      99.055     618.161
  H     -247.645     105.996     627.860
  H     -246.985     104.701     621.600
  H     -245.753     102.042     623.476
  H     -248.532     101.764     624.203
  H     -247.759     103.977     629.039
  H     -249.299     101.784     622.052
  H     -247.578     102.489     628.167
  H     -246.834     100.396     620.883
  H     -248.884     101.069     619.447
  H     -248.667     102.722     620.003
  P     -250.740      99.560     622.712
  C     -251.802      99.604     620.382
  O     -251.722     100.240     621.647
  O     -250.851     100.534     623.972
  O     -251.069      98.154     623.086
  H     -251.634     100.282     624.522
  H     -252.244     100.310     619.663
  H     -252.437      98.720     620.447
  H     -250.811      99.322     620.026
  H     -249.586     102.652     615.346
  H     -247.851     102.751     615.162
  H     -248.622     103.451     616.565

 3  4  5  6  7  8  9  10  11  12  23  26  30  31 0
 6-311+G(2d,p)
 ****
 33  35  36  37  38 0
 6-311+G(2d,p)
 ****
 1  2  13  14  15  16  17  18  19  20  21  22  24  25 0
 3-21G
 ****
 27  28  29  32  34  39  40  41  42  43  44  45  46  47  48  49 0
 3-21G
 ****


