%nproc=1
%NoSave
%Mem=1900MB
#P OB98/GEN NMR

erre ene a

0 1
  C     -372.495     -17.141      79.161
  O     -373.399     -18.017      79.806
  H     -371.810     -16.730      79.907
  H     -373.044     -16.317      78.697
  H     -371.916     -17.676      78.404
  P     -374.337     -18.899      78.853
  C     -372.586     -20.830      79.145
  O     -373.434     -20.097      78.272
  C     -372.213     -22.169      78.513
  O     -371.290     -22.890      79.352
  C     -373.381     -23.130      78.356
  O     -374.263     -22.748      77.323
  C     -372.637     -24.429      78.071
  O     -372.299     -24.552      76.684
  C     -371.363     -24.275      78.936
  N     -371.359     -25.191      80.059
  C     -371.127     -26.537      79.735
  O     -370.923     -26.861      78.565
  N     -371.171     -27.468      80.737
  C     -371.448     -27.102      81.950
  N     -371.506     -28.082      82.890
  C     -371.701     -25.699      82.332
  C     -371.643     -24.802      81.347
  O     -374.539     -17.944      77.586
  O     -375.611     -19.358      79.480
  H     -373.147     -24.609      76.198
  H     -373.709     -17.570      77.243
  H     -371.915     -25.442      83.361
  H     -371.815     -23.749      81.536
  H     -370.465     -24.467      78.332
  H     -373.241     -25.303      78.329
  H     -373.909     -23.242      79.309
  H     -371.728     -21.968      77.550
  H     -371.381     -29.037      82.574
  H     -373.075     -20.988      80.113
  H     -371.790     -27.926      83.846
  H     -371.690     -20.228      79.321
  P     -375.633     -23.537      77.065
  C     -376.989     -21.731      78.306
  O     -376.641     -23.110      78.241
  O     -375.496     -25.010      76.878
  O     -376.257     -22.775      75.801
  H     -376.427     -21.827      75.940
  H     -377.660     -21.571      79.124
  H     -377.464     -21.439      77.392
  H     -376.105     -21.146      78.451

 6  7  8  9  10  11  12  13  14  15  16  26  30  31  32  33  35 0
 6-311+G(2d,p)
 ****
 37  38 0
 6-311+G(2d,p)
 ****
 1  2  3  4  5  17  18  19  20  21  22  23  24  25 0
 3-21G
 ****
 27  28  29  34  36  39  40  41  42  43  44  45  46 0
 3-21G
 ****


