%nproc=1
%NoSave
%Mem=1900MB
#P OB98/GEN NMR

erre ene a

0 1
  C      247.341      -3.426      16.634
  O      247.973      -2.328      17.305
  P      247.314      -1.800      18.668
  C      245.267      -0.344      19.351
  O      246.105      -0.809      18.305
  C      244.786       1.081      19.062
  O      245.861       2.038      19.161
  C      244.215       1.264      17.665
  O      242.860       0.833      17.595
  C      244.297       2.773      17.503
  O      243.196       3.401      18.189
  C      245.617       3.104      18.213
  N      248.318       6.228      15.178
  C      247.203       6.428      15.917
  N      246.534       5.542      16.686
  C      247.133       4.342      16.657
  C      248.271       3.986      15.949
  C      248.876       4.991      15.178
  N      250.012       4.782      14.430
  N      248.580       2.658      16.157
  C      247.658       2.222      16.987
  N      246.756       3.200      17.311
  O      248.432      -0.812      19.251
  O      246.982      -2.884      19.640
  H      243.387       3.346      19.144
  H      248.435      -0.853      20.225
  H      246.798       7.436      15.892
  H      247.600       1.218      17.382
  H      245.564       4.045      18.773
  H      244.241       3.090      16.457
  H      244.848       0.768      16.914
  H      244.024       1.340      19.809
  H      245.805      -0.371      20.304
  H      250.403       5.562      13.926
  H      250.442       3.870      14.447
  H      244.418      -1.028      19.460
  P      242.513      -0.322      16.538
  C      242.371      -0.413      13.945
  O      242.712       0.341      15.092
  O      240.926      -0.473      16.683
  O      243.223      -1.612      16.775
  H      240.656      -1.392      16.485
  H      242.275       0.267      13.094
  H      241.422      -0.938      14.082
  H      243.162      -1.136      13.729
  H      247.889      -3.665      15.747
  H      246.339      -3.155      16.372
  H      247.323      -4.277      17.282

 3  4  5  6  7  8  9  10  11  12  22  25  29  30  31  32 0
 6-311+G(2d,p)
 ****
 33  36  37 0
 6-311+G(2d,p)
 ****
 1  2  13  14  15  16  17  18  19  20  21  23  24  26 0
 3-21G
 ****
 27  28  34  35  38  39  40  41  42  43  44  45  46  47  48 0
 3-21G
 ****


