%nproc=1
%NoSave
%Mem=1900MB
#P OB98/GEN NMR

erre ene a

0 1
  C     -136.552     157.714      69.689
  O     -137.535     157.770      70.727
  P     -137.223     156.966      72.081
  C     -136.489     158.946      73.633
  O     -137.491     158.006      73.271
  C     -136.539     159.211      75.136
  O     -135.353     159.919      75.570
  C     -137.711     160.075      75.576
  O     -138.927     159.346      75.560
  C     -137.243     160.510      76.959
  O     -137.488     159.472      77.920
  C     -135.724     160.681      76.744
  N     -135.315     162.074      76.627
  C     -134.592     162.585      77.701
  O     -134.326     161.928      78.705
  N     -134.202     163.892      77.590
  C     -134.482     164.725      76.546
  O     -134.096     165.886      76.497
  C     -135.292     164.144      75.465
  C     -135.666     162.864      75.552
  O     -135.632     156.845      72.008
  O     -137.955     155.670      72.171
  H     -135.209     157.623      71.607
  H     -137.024     158.676      77.590
  H     -133.666     164.277      78.351
  H     -135.556     164.784      74.633
  H     -136.266     162.419      74.764
  H     -135.172     160.235      77.580
  H     -137.757     161.410      77.311
  H     -137.795     160.950      74.921
  H     -136.569     158.242      75.651
  H     -136.648     159.886      73.096
  H     -135.512     158.555      73.332
  P     -140.035     159.809      74.491
  C     -139.230     158.901      72.176
  O     -140.026     158.711      73.324
  O     -139.320     161.081      73.834
  O     -141.369     160.095      75.098
  H     -138.382     160.928      73.634
  H     -139.083     157.934      71.687
  H     -138.251     159.317      72.430
  H     -139.743     159.572      71.482
  H     -136.886     158.289      68.851
  H     -136.407     156.697      69.389
  H     -135.628     158.114      70.051

 3  4  5  6  7  8  9  10  11  12  13  24  28  29  30  31  32 0
 6-311+G(2d,p)
 ****
 33  34 0
 6-311+G(2d,p)
 ****
 1  2  14  15  16  17  18  19  20  21  22  23  25  26  27 0
 3-21G
 ****
 35  36  37  38  39  40  41  42  43  44  45 0
 3-21G
 ****


