%nproc=1
%NoSave
%Mem=1900MB
#P OB98/GEN NMR

erre ene a

0 1
  C       10.390    -151.441     175.835
  O       10.378    -150.350     176.736
  H        9.609    -152.149     176.130
  H       11.356    -151.953     175.862
  H       10.181    -151.096     174.817
  P       11.486    -149.206     176.565
  C       12.805    -149.961     178.659
  O       12.067    -148.917     178.030
  C       13.145    -149.584     180.101
  O       13.992    -150.590     180.694
  C       13.898    -148.268     180.240
  O       13.027    -147.171     180.057
  C       14.472    -148.421     181.641
  O       13.472    -148.147     182.636
  C       14.852    -149.923     181.650
  N       16.261    -150.165     181.337
  C       17.178    -149.811     182.331
  O       16.790    -149.311     183.388
  N       18.516    -150.018     182.089
  C       18.900    -150.567     180.979
  N       20.237    -150.747     180.800
  C       17.960    -150.987     179.920
  C       16.671    -150.749     180.157
  O       11.059    -147.981     175.816
  O       12.699    -149.952     175.834
  H       13.878    -148.368     183.499
  H       12.643    -149.833     174.867
  H       18.322    -151.450     179.013
  H       15.914    -151.028     179.431
  H       14.641    -150.367     182.630
  H       15.301    -147.739     181.827
  H       14.735    -148.230     179.530
  H       12.207    -149.562     180.674
  H       20.841    -150.462     181.566
  H       13.724    -150.099     178.081
  H       20.634    -151.308     180.059
  H       12.239    -150.901     178.636
  P       13.147    -146.205     178.779
  C       14.971    -144.722     179.826
  O       13.633    -144.786     179.352
  O       11.938    -146.150     177.906
  O       14.456    -146.738     178.026
  H       14.252    -147.569     177.524
  H       15.177    -143.734     180.180
  H       15.644    -144.963     179.029
  H       15.100    -145.421     180.626

 6  7  8  9  10  11  12  13  14  15  16  26  30  31  32  33  35 0
 6-311+G(2d,p)
 ****
 37  38 0
 6-311+G(2d,p)
 ****
 1  2  3  4  5  17  18  19  20  21  22  23  24  25 0
 3-21G
 ****
 27  28  29  34  36  39  40  41  42  43  44  45  46 0
 3-21G
 ****


