%nproc=1
%NoSave
%Mem=1900MB
#P OB98/GEN NMR

erre ene a

0 1
  C      141.470     440.389     353.014
  O      141.229     440.176     354.391
  H      140.698     441.056     352.620
  H      141.429     439.442     352.470
  H      142.448     440.856     352.869
  P      142.204     439.132     355.130
  C      144.133     440.890     355.236
  O      143.672     439.646     354.729
  C      145.624     440.805     355.534
  O      146.099     442.043     356.109
  C      146.001     439.720     356.536
  O      146.036     438.424     355.961
  C      147.382     440.193     356.945
  O      148.327     439.886     355.906
  C      147.157     441.719     357.055
  N      146.787     442.151     358.404
  C      147.795     442.101     359.375
  O      148.923     441.695     359.092
  N      147.492     442.475     360.663
  C      146.295     442.874     360.956
  N      146.046     443.221     362.247
  C      145.208     442.963     359.961
  C      145.522     442.588     358.721
  O      142.054     437.796     354.264
  O      141.977     438.948     356.593
  H      149.159     440.346     356.130
  H      142.713     437.125     354.565
  H      144.224     443.294     360.253
  H      144.773     442.626     357.936
  H      148.053     442.271     356.741
  H      147.743     439.718     357.861
  H      145.348     439.740     357.416
  H      146.153     440.668     354.579
  H      146.791     443.093     362.920
  H      143.576     441.116     356.153
  H      145.109     443.368     362.602
  H      143.952     441.681     354.501
  P      146.612     437.225     356.861
  C      144.242     436.768     357.825
  O      145.608     437.049     358.102
  O      147.915     437.870     357.529
  O      146.930     435.966     356.112
  H      148.640     437.219     357.583
  H      143.703     436.679     358.745
  H      144.170     435.851     357.279
  H      143.825     437.563     357.243

 6  7  8  9  10  11  12  13  14  15  16  26  30  31  32  33  35 0
 6-311+G(2d,p)
 ****
 37  38 0
 6-311+G(2d,p)
 ****
 1  2  3  4  5  17  18  19  20  21  22  23  24  25 0
 3-21G
 ****
 27  28  29  34  36  39  40  41  42  43  44  45  46 0
 3-21G
 ****


