%nproc=1
%NoSave
%Mem=1900MB
#P OB98/GEN NMR

erre ene a

0 1
  C     -596.290    -895.660    -123.312
  O     -597.532    -895.010    -123.118
  H     -595.537    -894.910    -123.533
  H     -596.354    -896.360    -124.147
  H     -596.000    -896.200    -122.398
  P     -598.785    -895.960    -122.742
  C     -600.253    -895.270    -124.784
  O     -600.076    -895.250    -123.377
  C     -601.731    -895.000    -125.133
  O     -602.511    -896.190    -124.765
  C     -602.330    -893.810    -124.371
  O     -603.356    -893.220    -125.191
  C     -602.990    -894.500    -123.182
  O     -603.911    -893.640    -122.571
  C     -603.554    -895.730    -123.878
  N     -607.483    -898.340    -121.933
  C     -607.413    -897.410    -122.911
  N     -606.330    -896.760    -123.374
  C     -605.213    -897.190    -122.742
  C     -605.128    -898.130    -121.724
  C     -606.349    -898.710    -121.310
  N     -606.429    -899.650    -120.301
  N     -603.813    -898.280    -121.316
  C     -603.125    -897.450    -122.079
  N     -603.926    -896.780    -122.953
  O     -598.942    -895.720    -121.167
  O     -598.623    -897.400    -123.080
  H     -604.563    -893.290    -123.223
  H     -598.439    -896.400    -120.676
  H     -608.361    -897.150    -123.373
  H     -602.057    -897.290    -122.021
  H     -604.439    -895.500    -124.486
  H     -602.238    -894.770    -122.426
  H     -601.592    -893.050    -124.100
  H     -601.823    -894.880    -126.218
  H     -599.950    -896.250    -125.154
  H     -599.628    -894.500    -125.235
  H     -607.336    -900.000    -120.043
  H     -605.577    -899.910    -119.804
  P     -603.156    -891.720    -125.721
  C     -605.417    -890.660    -124.939
  O     -604.581    -891.030    -126.025
  O     -602.588    -891.960    -127.207
  O     -602.212    -890.860    -124.937
  H     -601.811    -891.360    -127.362
  H     -606.317    -890.219    -125.315
  H     -604.905    -889.953    -124.320
  H     -605.659    -891.529    -124.363

 6  7  8  9  10  11  12  13  14  15  25  28  32  33  34  35 0
 6-311+G(2d,p)
 ****
 36  37  40 0
 6-311+G(2d,p)
 ****
 1  2  3  4  5  16  17  18  19  20  21  22  23  24 0
 3-21G
 ****
 26  27  29  30  31  38  39 41  42  43  44  45  46  47  48 0
 3-21G
 ****


