%nproc=1
%NoSave
%Mem=1900MB
#P OB98/GEN NMR

erre ene a

0 1
  C      444.523    -248.713     374.474
  O      445.688    -248.815     373.671
  P      445.632    -248.150     372.206
  C      446.914    -250.093     371.011
  O      446.898    -248.730     371.405
  C      447.870    -250.278     369.836
  O      447.297    -249.736     368.632
  C      449.219    -249.582     370.007
  O      450.080    -250.381     370.803
  C      449.672    -249.430     368.562
  O      450.247    -250.665     368.067
  C      448.353    -249.116     367.841
  N      447.784    -245.408     364.455
  C      448.213    -246.709     364.281
  N      448.490    -247.085     363.019
  N      448.352    -247.565     365.257
  C      448.052    -247.046     366.476
  C      447.640    -245.762     366.779
  C      447.431    -244.846     365.675
  O      446.961    -243.711     365.763
  N      447.455    -245.603     368.131
  C      447.738    -246.784     368.637
  N      448.083    -247.705     367.674
  O      446.009    -246.625     372.488
  O      444.326    -248.308     371.493
  H      450.469    -250.557     367.122
  H      445.201    -246.077     372.531
  H      447.671    -244.798     363.661
  H      447.682    -247.032     369.687
  H      448.310    -249.571     366.839
  H      450.443    -248.664     368.446
  H      448.426    -246.480     362.215
  H      449.083    -248.591     370.453
  H      448.804    -248.039     362.871
  H      448.012    -251.351     369.674
  H      445.909    -250.392     370.709
  H      447.232    -250.709     371.860
  P      450.224    -249.998     372.355
  C      452.698    -249.700     371.608
  O      451.790    -249.895     372.676
  O      449.758    -251.337     373.112
  O      449.402    -248.823     372.782
  H      449.269    -251.106     373.920
  H      453.557    -249.142     371.982
  H      452.242    -249.128     370.787
  H      453.030    -250.666     371.233
  H      444.695    -249.193     375.415
  H      443.704    -249.188     373.976
  H      444.292    -247.681     374.637

 3  4  5  6  7  8  9  10  11  12  23  26  30  31 0
 6-311+G(2d,p)
 ****
 33  35  36  37  38 0
 6-311+G(2d,p)
 ****
 1  2  13  14  15  16  17  18  19  20  21  22  24  25 0
 3-21G
 ****
 27  28  29  32  34  39  40  41  42  43  44  45  46  47  48  49 0
 3-21G
 ****


