%nproc=1
%NoSave
%Mem=1900MB
#P OB98/GEN NMR

erre ene a

0 1
  C       46.792     106.944      25.794
  O       46.236     105.735      25.328
  H       46.350     107.174      26.768
  H       46.564     107.764      25.110
  H       47.873     106.846      25.915
  P       46.565     105.254      23.830
  C       44.067     104.686      23.684
  O       45.156     105.346      23.049
  C       42.723     105.179      23.144
  O       42.622     106.615      23.327
  C       42.509     104.887      21.655
  O       41.200     104.344      21.460
  C       42.616     106.255      20.999
  O       41.931     106.311      19.752
  C       42.071     107.157      22.112
  N       42.428     108.560      21.935
  C       41.454     109.386      21.366
  O       40.373     108.913      21.009
  N       41.737     110.714      21.178
  C       42.911     111.171      21.483
  N       43.133     112.495      21.263
  C       43.986     110.327      22.042
  C       43.677     109.046      22.247
  O       47.249     103.933      23.734
  O       47.405     106.459      23.196
  H       42.401     105.730      19.113
  H       47.910     106.130      22.412
  H       44.952     110.752      22.269
  H       44.401     108.354      22.662
  H       40.976     107.084      22.171
  H       43.672     106.490      20.816
  H       43.235     104.190      21.243
  H       41.926     104.737      23.755
  H       42.368     113.039      20.880
  H       44.132     104.862      24.763
  H       44.007     112.957      21.456
  H       44.157     103.612      23.488
  P       41.067     102.750      21.608
  C       40.822     102.470      19.044
  O       41.522     102.085      20.218
  O       39.485     102.520      21.645
  O       41.737     102.204      22.826
  H       39.186     102.387      22.563
  H       41.229     101.952      18.200
  H       40.924     103.525      18.898
  H       39.786     102.223      19.149

 6  7  8  9  10  11  12  13  14  15  16  26  30  31  32  33  35 0
 6-311+G(2d,p)
 ****
 37  38 0
 6-311+G(2d,p)
 ****
 1  2  3  4  5  17  18  19  20  21  22  23  24  25 0
 3-21G
 ****
 27  28  29  34  36  39  40  41  42  43  44  45  46 0
 3-21G
 ****


