%nproc=1
%NoSave
%Mem=1900MB
#P OB98/GEN NMR

erre ene a

0 1
  C     -463.848     371.709    -168.573
  O     -463.076     371.221    -167.501
  H     -464.318     372.651    -168.271
  H     -464.638     370.992    -168.826
  H     -463.222     371.893    -169.449
  P     -462.269     369.854    -167.758
  C     -462.408     367.782    -166.184
  O     -463.107     368.693    -167.031
  C     -463.383     367.117    -165.224
  O     -463.807     368.076    -164.227
  C     -464.660     366.613    -165.878
  O     -464.464     365.374    -166.541
  C     -465.596     366.516    -164.679
  O     -465.414     365.293    -163.964
  C     -465.145     367.699    -163.811
  N     -468.355     370.725    -161.250
  C     -467.558     369.704    -160.850
  N     -466.717     368.960    -161.601
  C     -466.734     369.364    -162.880
  C     -467.498     370.379    -163.437
  C     -468.342     371.080    -162.553
  N     -469.183     372.092    -162.965
  N     -467.284     370.466    -164.794
  C     -466.395     369.528    -165.056
  N     -466.034     368.837    -163.933
  O     -460.972     370.022    -166.831
  O     -461.908     369.588    -169.182
  H     -465.795     365.428    -163.073
  H     -460.234     370.381    -167.361
  H     -467.604     369.455    -159.795
  H     -465.992     369.299    -166.037
  H     -465.091     367.441    -162.751
  H     -466.644     366.568    -164.986
  H     -465.054     367.365    -166.581
  H     -462.863     366.300    -164.708
  H     -461.654     368.337    -165.610
  H     -461.900     367.032    -166.811
  H     -469.777     372.536    -162.285
  H     -469.253     372.292    -163.954
  P     -465.607     364.845    -167.529
  C     -467.145     362.739    -167.521
  O     -466.431     363.700    -166.756
  O     -464.791     364.035    -168.645
  O     -466.467     365.917    -168.133
  H     -464.684     364.577    -169.443
  H     -467.636     362.053    -166.863
  H     -466.463     362.205    -168.149
  H     -467.874     363.236    -168.127

 6  7  8  9  10  11  12  13  14  15  25  28  32  33  34  35 0
 6-311+G(2d,p)
 ****
 36  37  40 0
 6-311+G(2d,p)
 ****
 1  2  3  4  5  16  17  18  19  20  21  22  23  24 0
 3-21G
 ****
 26  27  29  30  31  38  39 41  42  43  44  45  46  47  48 0
 3-21G
 ****


