%nproc=1
%NoSave
%Mem=1900MB
#P OB98/GEN NMR

erre ene a

0 1
  C     -745.748     433.579    -582.962
  O     -745.234     434.714    -583.659
  P     -743.806     434.780    -584.363
  C     -744.766     436.776    -585.763
  O     -743.659     436.206    -585.073
  C     -744.932     438.286    -585.499
  O     -745.487     438.495    -584.180
  C     -743.568     438.981    -585.519
  O     -742.986     439.377    -586.747
  C     -743.704     440.116    -584.500
  O     -744.086     441.347    -585.111
  C     -744.815     439.610    -583.568
  N     -742.207     441.051    -579.408
  C     -742.408     441.734    -580.592
  N     -741.797     442.940    -580.699
  N     -743.125     441.275    -581.579
  C     -743.611     440.034    -581.367
  C     -743.463     439.244    -580.248
  C     -742.712     439.785    -579.126
  O     -742.524     439.226    -578.057
  N     -744.076     438.023    -580.395
  C     -744.563     438.058    -581.621
  N     -744.319     439.261    -582.258
  O     -743.422     433.579    -585.166
  O     -742.784     434.877    -583.113
  H     -744.191     442.014    -584.414
  H     -741.967     434.411    -583.379
  H     -741.663     441.462    -578.665
  H     -745.118     437.252    -582.097
  H     -745.581     440.384    -583.419
  H     -742.749     440.293    -583.999
  H     -741.137     443.291    -580.029
  H     -742.850     438.283    -585.077
  H     -741.762     443.346    -581.640
  H     -745.653     438.725    -586.196
  H     -745.661     436.234    -585.435
  H     -744.672     436.599    -586.835
  P     -742.004     438.493    -587.653
  C     -742.951     439.337    -589.887
  O     -741.805     439.249    -589.055
  O     -742.901     437.230    -588.077
  O     -740.746     438.050    -586.985
  H     -742.340     436.507    -588.412
  H     -742.636     439.588    -590.902
  H     -743.616     440.129    -589.515
  H     -743.495     438.387    -589.912
  H     -746.725     433.803    -582.588
  H     -745.100     433.338    -582.146
  H     -745.804     432.745    -583.630

 3  4  5  6  7  8  9  10  11  12  23  26  30  31 0
 6-311+G(2d,p)
 ****
 33  35  36  37  38 0
 6-311+G(2d,p)
 ****
 1  2  13  14  15  16  17  18  19  20  21  22  24  25 0
 3-21G
 ****
 27  28  29  32  34  39  40  41  42  43  44  45  46  47  48  49 0
 3-21G
 ****


