%nproc=1
%NoSave
%Mem=1900MB
#P OB98/GEN NMR

erre ene a

0 1
  C     -895.310    -890.340    -898.630
  O     -894.930    -890.560    -897.240
  P     -895.650    -891.740    -896.450
  C     -893.710    -893.390    -896.530
  O     -895.080    -893.170    -896.860
  C     -893.500    -894.910    -896.020
  O     -894.110    -895.030    -894.710
  C     -894.150    -895.920    -896.930
  O     -893.330    -897.120    -896.920
  C     -895.500    -896.240    -896.250
  O     -896.060    -897.470    -896.670
  C     -894.960    -896.160    -894.760
  N     -898.080    -898.470    -891.390
  C     -897.100    -898.930    -892.190
  N     -896.300    -898.250    -893.050
  C     -896.700    -896.930    -893.100
  C     -897.700    -896.320    -892.370
  C     -898.450    -897.120    -891.500
  N     -899.480    -896.710    -890.740
  N     -897.800    -894.980    -892.710
  C     -896.830    -894.820    -893.580
  N     -896.100    -895.940    -893.820
  O     -897.190    -891.760    -897.090
  O     -895.760    -891.480    -894.970
  H     -896.960    -897.570    -896.280
  H     -897.810    -891.310    -896.500
  H     -896.840    -900.000    -892.050
  H     -896.670    -893.830    -894.120
  H     -894.510    -897.070    -894.450
  H     -896.240    -895.460    -896.450
  H     -894.310    -895.620    -897.990
  H     -892.390    -895.050    -895.990
  H     -893.420    -892.690    -895.750
  H     -900.000    -897.320    -890.140
  H     -899.780    -895.720    -890.780
  H     -893.090    -893.200    -897.400
  P     -892.480    -897.450    -898.250
  C     -890.530    -898.850    -897.130
  O     -890.910    -897.620    -897.740
  O     -892.440    -896.020    -899.000
  O     -893.030    -898.530    -899.100
  H     -892.370    -896.200    -900.000
  H     -889.550    -899.090    -897.500
  H     -891.210    -899.640    -897.390
  H     -890.460    -898.730    -896.030
  H     -894.748    -889.521    -899.028
  H     -896.355    -890.115    -898.683
  H     -895.106    -891.223    -899.199

 3  4  5  6  7  8  9  10  11  12  22  25  29  30  31  32 0
 6-311+G(2d,p)
 ****
 33  36  37 0
 6-311+G(2d,p)
 ****
 1  2  13  14  15  16  17  18  19  20  21  23  24  26 0
 3-21G
 ****
 27  28  34  35  38  39  40  41  42  43  44  45  46  47  48 0
 3-21G
 ****


