%nproc=1
%NoSave
%Mem=1900MB
#P OB98/GEN NMR

erre ene a

0 1
  C     -329.197     220.622     423.952
  O     -328.035     220.761     424.749
  P     -327.036     219.524     424.976
  C     -328.434     218.862     427.109
  O     -327.169     219.061     426.495
  C     -328.281     219.001     428.629
  O     -327.176     218.192     429.096
  C     -328.002     220.446     429.027
  O     -329.212     221.115     429.379
  C     -327.045     220.297     430.193
  O     -327.763     219.995     431.403
  C     -326.215     219.068     429.757
  N     -325.085     219.285     428.823
  C     -324.078     220.186     429.160
  O     -324.063     220.822     430.206
  N     -323.106     220.376     428.210
  C     -323.023     219.714     427.018
  O     -322.306     220.052     426.085
  C     -323.942     218.586     426.850
  C     -324.930     218.439     427.733
  O     -325.599     220.225     424.929
  O     -327.166     218.409     423.993
  H     -327.100     219.769     432.094
  H     -325.188     220.101     424.047
  H     -322.460     221.131     428.382
  H     -323.821     217.940     425.980
  H     -325.651     217.630     427.609
  H     -325.818     218.524     430.619
  H     -326.504     221.222     430.378
  H     -327.486     220.985     428.223
  H     -329.197     218.635     429.112
  H     -328.814     217.871     426.850
  H     -329.145     219.598     426.727
  P     -329.676     222.407     428.552
  C     -328.143     223.843     430.022
  O     -329.462     223.636     429.560
  O     -331.026     222.313     427.924
  O     -328.512     222.578     427.467
  H     -328.795     222.185     426.608
  H     -328.101     224.802     430.542
  H     -327.432     223.858     429.191
  H     -327.873     223.050     430.730
  H     -329.725     221.552     423.926
  H     -329.828     219.866     424.370
  H     -328.916     220.343     422.958

 3  4  5  6  7  8  9  10  11  12  13  23  28  29  30  31  32 0
 6-311+G(2d,p)
 ****
 33  34 0
 6-311+G(2d,p)
 ****
 1  2  14  15  16  17  18  19  20  21  22  24  25  26  27 0
 3-21G
 ****
 35  36  37  38  39  40  41  42  43  44  45 0
 3-21G
 ****


