%nproc=1
%NoSave
%Mem=1900MB
#P OB98/GEN NMR

erre ene a

0 1
  C      700.878    -751.185    1461.670
  O      699.896    -751.912    1460.971
  H      700.682    -750.119    1461.563
  H      701.874    -751.401    1461.277
  H      700.847    -751.441    1462.744
  P      700.034    -753.511    1460.981
  C      701.944    -755.133    1460.283
  O      701.437    -753.799    1460.253
  C      702.442    -755.528    1458.892
  O      703.682    -754.837    1458.589
  C      702.760    -757.021    1458.752
  O      701.572    -757.747    1458.445
  C      703.714    -757.011    1457.558
  O      702.964    -756.916    1456.335
  C      704.523    -755.709    1457.789
  N      709.168    -757.839    1457.497
  C      708.054    -758.021    1456.747
  N      706.824    -757.461    1456.916
  C      706.831    -756.628    1457.971
  C      707.909    -756.349    1458.819
  C      709.129    -756.990    1458.530
  N      710.260    -756.801    1459.302
  N      707.528    -755.450    1459.800
  C      706.270    -755.153    1459.515
  N      705.800    -755.859    1458.436
  O      698.853    -754.274    1460.473
  O      700.394    -753.781    1462.533
  H      703.626    -756.910    1455.600
  H      701.012    -753.099    1462.860
  H      708.163    -758.707    1455.914
  H      705.681    -754.395    1460.034
  H      704.696    -755.176    1456.824
  H      704.325    -757.916    1457.502
  H      703.290    -757.413    1459.626
  H      701.704    -755.230    1458.144
  H      701.145    -755.812    1460.591
  H      711.023    -757.446    1459.164
  H      710.174    -756.264    1460.145
  H      702.742    -755.174    1461.021
  P      701.290    -759.185    1459.105
  C      702.377    -761.509    1458.905
  O      702.473    -760.130    1458.557
  O      699.908    -759.701    1458.890
  O      701.669    -758.994    1460.657
  H      701.297    -759.729    1461.193
  H      703.209    -762.040    1458.492
  H      701.466    -761.913    1458.514
  H      702.383    -761.609    1459.970

 6  7  8  9  10  11  12  13  14  15  25  28  32  33  34  35 0
 6-311+G(2d,p)
 ****
 36  39  40 0
 6-311+G(2d,p)
 ****
 1  2  3  4  5  16  17  18  19  20  21  22  23  24 0
 3-21G
 ****
 26  27  29  30  31  37  38  41  42  43  44  45  46  47 0
 3-21G
 ****
 48 0
 3-21G
 ****


