%nproc=1
%NoSave
%Mem=1900MB
#P OB98/GEN NMR

erre ene a

0 1
  C      -74.115    -160.446     -38.044
  O      -75.225    -161.268     -37.725
  P      -75.205    -162.200     -36.421
  C      -72.876    -163.249     -36.708
  O      -74.281    -163.463     -36.775
  C      -72.119    -164.527     -37.062
  O      -70.703    -164.232     -37.111
  C      -72.318    -165.649     -36.051
  O      -72.343    -166.900     -36.746
  C      -71.065    -165.608     -35.192
  O      -70.791    -166.893     -34.609
  C      -70.023    -165.119     -36.202
  N      -65.460    -162.873     -36.901
  C      -66.308    -163.471     -37.764
  N      -67.490    -164.070     -37.507
  C      -67.801    -163.959     -36.205
  C      -67.038    -163.373     -35.206
  C      -65.811    -162.813     -35.595
  N      -64.953    -162.191     -34.712
  N      -67.672    -163.481     -33.983
  C      -68.802    -164.100     -34.245
  N      -68.931    -164.401     -35.576
  O      -76.546    -162.546     -35.873
  O      -74.322    -161.391     -35.363
  H      -70.868    -167.557     -35.325
  H      -74.691    -161.491     -34.465
  H      -65.992    -163.474     -38.805
  H      -69.550    -164.365     -33.514
  H      -69.605    -165.948     -36.786
  H      -71.203    -164.891     -34.376
  H      -73.231    -165.532     -35.458
  H      -72.423    -164.848     -38.066
  H      -72.622    -162.951     -35.687
  H      -64.156    -161.713     -35.101
  H      -65.291    -161.994     -33.780
  H      -72.599    -162.434     -37.386
  P      -73.514    -167.919     -36.315
  C      -71.899    -169.864     -35.693
  O      -72.896    -169.376     -36.562
  O      -74.809    -167.604     -36.989
  O      -73.522    -167.729     -34.725
  H      -72.651    -167.414     -34.395
  H      -71.578    -170.848     -36.046
  H      -72.298    -169.972     -34.682
  H      -71.035    -169.192     -35.684
  H      -74.319    -159.904     -38.944
  H      -73.248    -161.057     -38.184
  H      -73.940    -159.757     -37.245

 3  4  5  6  7  8  9  10  11  12  22  25  29  30  31  32 0
 6-311+G(2d,p)
 ****
 33  36  37 0
 6-311+G(2d,p)
 ****
 1  2  13  14  15  16  17  18  19  20  21  23  24  26 0
 3-21G
 ****
 27  28  34  35  38  39  40  41  42  43  44  45  46  47  48 0
 3-21G
 ****


