%nproc=1
%NoSave
%Mem=1900MB
#P OB98/GEN NMR

erre ene a

0 1
  C      188.067     252.833     116.963
  O      187.858     254.045     116.266
  H      187.863     252.000     116.288
  H      187.389     252.768     117.819
  H      189.106     252.767     117.304
  P      188.085     255.398     117.101
  C      185.613     256.061     116.683
  O      186.638     255.837     117.641
  C      184.238     255.927     117.332
  O      184.026     254.579     117.807
  C      184.014     256.850     118.526
  O      183.630     258.148     118.107
  C      182.901     256.115     119.264
  O      181.611     256.384     118.676
  C      183.298     254.645     119.061
  N      183.399     253.586     123.996
  C      182.377     254.085     123.212
  N      181.227     254.396     123.852
  N      182.477     254.272     121.922
  C      183.695     253.946     121.428
  C      184.779     253.427     122.100
  C      184.645     253.197     123.520
  O      185.490     252.697     124.259
  N      185.831     253.210     121.249
  C      185.400     253.632     120.075
  N      184.112     254.102     120.137
  O      188.399     256.488     115.968
  O      189.165     255.344     118.125
  H      180.925     255.928     119.192
  H      188.999     257.164     116.335
  H      183.256     253.449     124.983
  H      185.971     253.616     119.159
  H      182.424     253.993     118.966
  H      182.837     256.424     120.308
  H      181.210     254.591     124.843
  H      184.908     256.887     119.160
  H      180.485     254.783     123.287
  H      183.485     256.120     116.554
  H      185.705     255.321     115.882
  H      185.730     257.065     116.257
  P      183.899     259.368     119.116
  C      181.421     260.113     118.847
  O      182.474     259.764     119.737
  O      184.226     260.592     118.137
  O      184.991     259.130     120.102
  H      184.666     261.306     118.632
  H      180.542     260.350     119.410
  H      181.216     259.289     118.196
  H      181.712     260.963     118.266

 6  7  8  9  10  11  12  13  14  15  26  29  33  34 0
 6-311+G(2d,p)
 ****
 36  38  39  40  41 0
 6-311+G(2d,p)
 ****
 1  2  3  4  5  16  17  18  19  20  21  22  23  24  25 0
 3-21G
 ****
 27  28  30  31  32  35  37  42  43  44  45  46  47 0
 3-21G
 ****
 48  49 0
 3-21G
 ****


