%nproc=1
%NoSave
%Mem=1900MB
#P OB98/GEN NMR

erre ene a

0 1
  C       14.345      71.599     -14.364
  O       13.013      71.544     -14.840
  H       14.519      72.585     -13.923
  H       15.046      71.454     -15.192
  H       14.506      70.835     -13.599
  P       12.566      70.175     -15.551
  C       13.790      68.756     -17.348
  O       13.448      70.058     -16.889
  C       14.669      68.844     -18.591
  O       13.934      69.422     -19.695
  C       15.925      69.686     -18.418
  O       16.964      68.938     -17.804
  C       16.241      70.054     -19.860
  O       16.923      68.982     -20.542
  C       14.839      70.274     -20.448
  N       15.139      74.785     -22.697
  C       15.689      73.572     -23.055
  N       16.483      73.573     -24.152
  N       15.491      72.459     -22.399
  C       14.704      72.618     -21.307
  C       14.087      73.763     -20.856
  C       14.290      74.980     -21.613
  O       13.778      76.073     -21.384
  N       13.354      73.517     -19.723
  C       13.558      72.240     -19.469
  N       14.386      71.653     -20.393
  O       11.099      70.506     -16.108
  O       12.559      68.969     -14.674
  H       17.612      68.621     -19.960
  H       10.567      69.689     -16.109
  H       15.314      75.604     -23.253
  H       13.136      71.699     -18.634
  H       14.779      69.961     -21.500
  H       16.895      70.928     -19.921
  H       16.928      74.419     -24.483
  H       15.707      70.599     -17.848
  H       16.907      72.693     -24.409
  H       14.931      67.816     -18.881
  H       12.870      68.211     -17.593
  H       14.320      68.222     -16.551
  P       17.687      69.578     -16.520
  C       19.469      71.448     -16.170
  O       18.812      70.575     -17.083
  O       18.539      68.359     -15.931
  O       16.761      70.155     -15.505
  H       18.803      68.548     -15.007
  H       20.185      72.043     -16.698
  H       19.968      70.870     -15.421
  H       18.747      72.087     -15.706

 6  7  8  9  10  11  12  13  14  15  26  29  33  34 0
 6-311+G(2d,p)
 ****
 36  38  39  40  41 0
 6-311+G(2d,p)
 ****
 1  2  3  4  5  16  17  18  19  20  21  22  23  24  25 0
 3-21G
 ****
 27  28  30  31  32  35  37  42  43  44  45  46  47 0
 3-21G
 ****
 48  49 0
 3-21G
 ****


