%nproc=1
%NoSave
%Mem=1900MB
#P OB98/GEN NMR

erre ene a

0 1
  C     -151.339    -144.786    -186.256
  O     -150.013    -144.428    -186.651
  P     -148.887    -145.576    -186.585
  C     -147.724    -144.918    -184.335
  O     -148.590    -145.806    -185.024
  C     -147.313    -145.498    -182.975
  O     -148.496    -145.637    -182.127
  C     -146.631    -146.864    -183.049
  O     -145.614    -146.877    -182.031
  C     -147.746    -147.830    -182.691
  O     -147.244    -149.074    -182.215
  C     -148.512    -147.001    -181.653
  N     -149.871    -147.479    -181.439
  C     -150.021    -148.659    -180.720
  O     -149.065    -149.334    -180.338
  N     -151.308    -149.070    -180.493
  C     -152.437    -148.467    -180.978
  O     -153.569    -148.869    -180.742
  C     -152.212    -147.283    -181.832
  C     -150.964    -146.858    -182.017
  O     -147.606    -144.790    -187.122
  O     -149.258    -146.799    -187.358
  H     -147.568    -143.863    -186.838
  H     -147.996    -149.666    -182.025
  H     -151.439    -149.906    -179.947
  H     -153.077    -146.816    -182.277
  H     -150.761    -146.007    -182.658
  H     -147.982    -147.016    -180.691
  H     -148.368    -148.021    -183.569
  H     -146.173    -147.064    -184.023
  H     -146.653    -144.772    -182.485
  H     -148.230    -143.963    -184.173
  H     -146.848    -144.716    -184.958
  P     -144.088    -146.603    -182.477
  C     -143.561    -149.162    -182.679
  O     -143.600    -147.894    -183.290
  O     -143.351    -146.777    -181.057
  O     -143.840    -145.271    -183.099
  H     -143.634    -147.574    -180.576
  H     -143.432    -149.924    -183.452
  H     -144.492    -149.370    -182.133
  H     -142.716    -149.217    -181.988
  H     -151.981    -143.935    -186.348
  H     -151.331    -145.118    -185.239
  H     -151.698    -145.573    -186.885

 3  4  5  6  7  8  9  10  11  12  13  24  28  29  30  31  32 0
 6-311+G(2d,p)
 ****
 33  34 0
 6-311+G(2d,p)
 ****
 1  2  14  15  16  17  18  19  20  21  22  23  25  26  27 0
 3-21G
 ****
 35  36  37  38  39  40  41  42  43  44  45 0
 3-21G
 ****


