%nproc=1
%NoSave
%Mem=1900MB
#P OB98/GEN NMR

erre ene a

0 1
  C      394.583     961.090    -543.017
  O      393.293     960.517    -542.953
  H      394.880     961.388    -542.012
  H      394.569     961.974    -543.657
  H      395.309     960.366    -543.398
  P      392.682     959.840    -544.274
  C      390.228     960.605    -544.078
  O      391.141     959.520    -543.964
  C      388.832     960.156    -543.645
  O      388.319     959.161    -544.552
  C      388.803     959.497    -542.262
  O      388.916     960.449    -541.230
  C      387.470     958.770    -542.330
  O      386.384     959.648    -542.027
  C      387.416     958.316    -543.804
  N      387.769     956.904    -543.957
  C      386.774     955.988    -543.636
  O      385.651     956.306    -543.239
  N      387.135     954.664    -543.708
  C      388.401     954.199    -543.925
  O      388.732     953.028    -543.744
  C      389.391     955.208    -544.329
  C      389.039     956.491    -544.315
  O      393.468     958.698    -544.836
  O      392.590     961.056    -545.312
  H      393.334     960.996    -545.945
  H      386.535     959.958    -541.110
  H      386.430     953.996    -543.427
  H      390.387     954.868    -544.586
  H      389.760     957.266    -544.576
  H      386.417     958.483    -544.224
  H      387.433     957.936    -541.612
  H      389.613     958.757    -542.192
  H      388.164     961.026    -543.679
  H      390.191     960.930    -545.128
  H      390.583     961.435    -543.460
  P      390.101     960.340    -540.157
  C      388.268     960.896    -538.430
  O      389.631     961.081    -538.809
  O      391.452     960.736    -540.653
  O      390.088     958.791    -539.726
  H      390.994     958.440    -539.787
  H      388.074     961.432    -537.525
  H      388.079     959.854    -538.275
  H      387.629     961.263    -539.206

 6  7  8  9  10  11  12  13  14  15  16  27  31  32  33  34  35 0
 6-311+G(2d,p)
 ****
 36  37 0
 6-311+G(2d,p)
 ****
 1  2  3  4  5  17  18  19  20  21  22  23  24  25 0
 3-21G
 ****
 26  28  29  30  38  39  40  41  42  43  44  45 0
 3-21G
 ****


