%nproc=1
%NoSave
%Mem=1900MB
#P OB98/GEN NMR

erre ene a

0 1
  C       80.134      -6.871     467.294
  O       81.163      -6.800     466.301
  P       82.647      -6.518     466.838
  C       82.737      -4.043     466.067
  O       83.283      -5.349     465.943
  C       83.410      -3.081     465.079
  O       84.814      -2.894     465.361
  C       83.340      -3.553     463.632
  O       82.058      -3.263     463.091
  C       84.454      -2.747     462.983
  O       84.008      -1.428     462.617
  C       85.503      -2.667     464.108
  N       90.453      -3.372     464.959
  C       89.685      -2.231     465.091
  N       90.322      -1.124     465.532
  N       88.410      -2.181     464.811
  C       87.903      -3.359     464.377
  C       88.558      -4.563     464.238
  C       89.968      -4.610     464.541
  O       90.687      -5.600     464.468
  N       87.697      -5.556     463.835
  C       86.561      -4.917     463.613
  N       86.614      -3.597     463.992
  O       83.453      -7.830     466.402
  O       82.713      -6.302     468.318
  H       83.823      -0.919     463.428
  H       83.682      -8.357     467.188
  H       91.435      -3.354     465.181
  H       85.664      -5.371     463.210
  H       85.954      -1.665     464.165
  H       84.815      -3.218     462.066
  H       91.305      -1.095     465.769
  H       83.564      -4.628     463.573
  H       89.779      -0.281     465.645
  H       82.913      -2.108     465.180
  H       82.876      -3.673     467.087
  H       81.665      -4.090     465.891
  P       80.820      -4.143     463.591
  C       82.243      -6.312     463.462
  O       81.053      -5.642     463.080
  O       79.609      -3.616     462.686
  O       80.501      -4.009     465.046
  H       78.811      -3.491     463.241
  H       82.042      -7.384     463.509
  H       82.602      -5.972     464.437
  H       83.017      -6.129     462.708
  H       79.194      -7.062     466.820
  H       80.085      -5.943     467.824
  H       80.355      -7.662     467.980

 3  4  5  6  7  8  9  10  11  12  23  26  30  31 0
 6-311+G(2d,p)
 ****
 33  35  36  37  38 0
 6-311+G(2d,p)
 ****
 1  2  13  14  15  16  17  18  19  20  21  22  24  25 0
 3-21G
 ****
 27  28  29  32  34  39  40  41  42  43  44  45  46  47  48  49 0
 3-21G
 ****


