%nproc=1
%NoSave
%Mem=1900MB
#P OB98/GEN NMR

erre ene a

0 1
  C     -994.072      93.964    -521.488
  O     -993.340      92.951    -522.150
  H     -994.398      94.697    -522.237
  H     -993.435      94.475    -520.759
  H     -994.955      93.547    -520.999
  P     -992.897      91.651    -521.313
  C     -994.516      90.009    -522.486
  O     -993.156      90.382    -522.260
  C     -994.604      88.877    -523.518
  O     -994.498      89.465    -524.859
  C     -993.476      87.817    -523.409
  O     -994.029      86.577    -523.870
  C     -992.457      88.368    -524.386
  O     -991.430      87.456    -524.676
  C     -993.399      88.787    -525.528
  N     -992.802      89.643    -526.543
  C     -992.057      89.030    -527.556
  O     -991.871      87.809    -527.637
  N     -991.505      89.878    -528.488
  C     -991.633      91.230    -528.518
  O     -991.154      91.933    -529.390
  C     -992.435      91.825    -527.426
  C     -992.982      91.013    -526.515
  O     -993.463      91.542    -519.936
  O     -991.294      91.748    -521.292
  H     -991.005      92.083    -520.421
  H     -991.816      86.659    -525.088
  H     -990.975      89.437    -529.220
  H     -992.535      92.899    -527.416
  H     -993.567      91.418    -525.702
  H     -993.811      87.894    -525.996
  H     -991.956      89.247    -523.950
  H     -993.116      87.698    -522.383
  H     -995.597      88.417    -523.457
  H     -995.060      90.887    -522.853
  H     -994.965      89.680    -521.536
  P     -993.331      85.146    -523.614
  C     -995.386      84.189    -522.362
  O     -994.495      84.039    -523.461
  O     -992.347      85.145    -522.483
  O     -992.610      84.779    -524.995
  H     -991.862      84.186    -524.824
  H     -996.105      83.396    -522.375
  H     -995.891      85.129    -522.438
  H     -994.833      84.154    -521.447

 6  7  8  9  10  11  12  13  14  15  16  27  31  32  33  34  35 0
 6-311+G(2d,p)
 ****
 36  37 0
 6-311+G(2d,p)
 ****
 1  2  3  4  5  17  18  19  20  21  22  23  24  25 0
 3-21G
 ****
 26  28  29  30  38  39  40  41  42  43  44  45 0
 3-21G
 ****


