%nproc=1
%NoSave
%Mem=1900MB
#P OB98/GEN NMR

erre ene a

0 1
  C      362.050     333.330     -88.327
  O      360.746     333.619     -87.853
  P      359.588     333.831     -88.950
  C      357.912     332.044     -88.076
  O      358.205     333.428     -88.257
  C      356.595     331.880     -87.310
  O      356.782     332.230     -85.921
  C      355.463     332.767     -87.809
  O      354.911     332.274     -89.021
  C      354.517     332.716     -86.609
  O      353.775     331.485     -86.619
  C      355.508     332.728     -85.425
  N      355.333     335.571     -81.163
  C      355.039     334.272     -81.399
  N      355.087     333.596     -82.559
  C      355.499     334.391     -83.560
  C      355.811     335.736     -83.483
  C      355.718     336.340     -82.216
  N      356.016     337.665     -81.991
  N      356.166     336.231     -84.723
  C      356.084     335.196     -85.533
  N      355.699     334.063     -84.872
  O      359.851     332.642     -89.988
  O      359.602     335.169     -89.618
  H      353.158     331.512     -85.856
  H      359.630     332.920     -90.901
  H      354.725     333.698     -80.522
  H      356.299     335.220     -86.594
  H      355.188     332.073     -84.609
  H      353.798     333.538     -86.590
  H      355.820     333.794     -87.960
  H      356.303     330.824     -87.373
  H      358.712     331.570     -87.502
  H      355.780     338.050     -81.086
  H      356.164     338.267     -82.792
  H      357.863     331.556     -89.056
  P      354.747     333.311     -90.232
  C      353.792     331.322     -91.551
  O      353.577     332.664     -91.135
  O      356.057     333.015     -91.093
  O      354.534     334.726     -89.823
  H      356.197     332.065     -91.250
  H      352.908     330.984     -92.107
  H      353.933     330.670     -90.686
  H      354.663     331.267     -92.212
  H      362.714     333.214     -87.496
  H      362.390     334.133     -88.947
  H      362.030     332.424     -88.896

 3  4  5  6  7  8  9  10  11  12  22  25  29  30  31  32 0
 6-311+G(2d,p)
 ****
 33  36  37 0
 6-311+G(2d,p)
 ****
 1  2  13  14  15  16  17  18  19  20  21  23  24  26 0
 3-21G
 ****
 27  28  34  35  38  39  40  41  42  43  44  45  46  47  48 0
 3-21G
 ****


