%nproc=1
%NoSave
%Mem=1900MB
#P OB98/GEN NMR

erre ene a

0 1
  C      -20.369    -442.455    -227.669
  O      -19.086    -442.827    -228.152
  P      -18.213    -443.840    -227.263
  C      -18.246    -446.111    -228.523
  O      -18.840    -445.294    -227.523
  C      -19.284    -447.048    -229.134
  O      -20.297    -446.290    -229.833
  C      -18.731    -448.033    -230.162
  O      -18.137    -449.172    -229.545
  C      -19.990    -448.427    -230.898
  O      -20.724    -449.406    -230.131
  C      -20.771    -447.102    -230.943
  N      -21.128    -447.391    -236.037
  C      -21.312    -448.311    -235.073
  N      -21.193    -448.163    -233.736
  C      -20.794    -446.911    -233.431
  C      -20.521    -445.873    -234.320
  C      -20.715    -446.146    -235.685
  N      -20.544    -445.199    -236.669
  N      -20.134    -444.741    -233.635
  C      -20.167    -445.082    -232.363
  N      -20.577    -446.384    -232.190
  O      -18.684    -443.502    -225.761
  O      -16.739    -443.721    -227.428
  H      -20.213    -450.240    -230.167
  H      -17.995    -443.768    -225.130
  H      -21.620    -449.293    -235.409
  H      -19.933    -444.422    -231.537
  H      -21.851    -447.244    -230.808
  H      -19.794    -448.879    -231.875
  H      -18.034    -447.533    -230.854
  H      -19.778    -447.590    -228.314
  H      -17.449    -446.705    -228.074
  H      -20.883    -445.418    -237.599
  H      -20.443    -444.228    -236.379
  H      -17.813    -445.462    -229.304
  P      -16.685    -449.604    -230.066
  C      -15.742    -449.672    -227.649
  O      -15.652    -449.102    -228.940
  O      -16.426    -448.603    -231.294
  O      -16.578    -451.033    -230.468
  H      -15.800    -449.002    -231.934
  H      -14.804    -449.458    -227.107
  H      -15.870    -450.753    -227.701
  H      -16.564    -449.221    -227.090
  H      -20.829    -441.781    -228.361
  H      -20.267    -441.975    -226.718
  H      -20.977    -443.329    -227.563

 3  4  5  6  7  8  9  10  11  12  22  25  29  30  31  32 0
 6-311+G(2d,p)
 ****
 33  36  37 0
 6-311+G(2d,p)
 ****
 1  2  13  14  15  16  17  18  19  20  21  23  24  26 0
 3-21G
 ****
 27  28  34  35  38  39  40  41  42  43  44  45  46  47  48 0
 3-21G
 ****


