%nproc=1
%NoSave
%Mem=1900MB
#P OB98/GEN NMR

erre ene a

0 1
  C      -96.329      67.055      25.910
  O      -95.231      67.930      25.757
  H      -96.391      66.413      25.027
  H      -97.258      67.623      25.999
  H      -96.190      66.429      26.795
  P      -95.034      69.039      26.904
  C      -95.515      70.892      25.132
  O      -95.884      70.293      26.365
  C      -96.762      71.337      24.373
  O      -97.630      70.212      24.117
  C      -97.627      72.352      25.118
  O      -97.110      73.671      25.077
  C      -98.916      72.224      24.323
  O      -98.768      72.889      23.055
  C      -99.001      70.693      24.147
  N      -99.755      70.034      25.217
  C     -101.062      69.635      24.910
  O     -101.536      69.839      23.795
  N     -101.819      69.044      25.895
  C     -101.312      68.846      27.073
  N     -102.111      68.257      28.004
  C      -99.938      69.236      27.434
  C      -99.224      69.818      26.472
  O      -93.523      69.524      26.695
  O      -95.360      68.608      28.295
  H      -98.688      73.841      23.246
  H      -93.342      70.316      27.260
  H      -99.564      69.063      28.434
  H      -98.204      70.132      26.664
  H      -99.462      70.433      23.185
  H      -99.775      72.676      24.819
  H      -97.816      72.037      26.150
  H      -96.438      71.729      23.401
  H     -103.068      68.055      27.743
  H      -94.959      70.154      24.543
  H     -101.862      68.198      28.983
  H      -94.872      71.760      25.314
  P      -96.451      74.243      26.424
  C      -98.282      76.095      26.445
  O      -97.585      75.090      27.173
  O      -95.445      75.364      25.887
  O      -95.754      73.221      27.268
  H      -94.649      75.415      26.451
  H      -99.000      76.565      27.084
  H      -98.783      75.649      25.612
  H      -97.586      76.827      26.092

 6  7  8  9  10  11  12  13  14  15  16  26  30  31  32  33  35 0
 6-311+G(2d,p)
 ****
 37  38 0
 6-311+G(2d,p)
 ****
 1  2  3  4  5  17  18  19  20  21  22  23  24  25 0
 3-21G
 ****
 27  28  29  34  36  39  40  41  42  43  44  45  46 0
 3-21G
 ****


