%nproc=1
%NoSave
%Mem=1900MB
#P OB98/GEN NMR

erre ene a

0 1
  C     -566.757    1665.176      38.006
  O     -565.366    1665.193      37.763
  P     -564.775    1664.291      36.542
  C     -563.320    1666.347      35.992
  O     -564.087    1665.272      35.476
  C     -562.545    1667.073      34.900
  O     -561.667    1666.148      34.176
  C     -563.374    1667.788      33.890
  O     -562.686    1669.014      33.510
  C     -563.409    1666.834      32.734
  O     -563.783    1667.443      31.511
  C     -561.959    1666.306      32.793
  N     -561.789    1665.041      32.056
  C     -561.283    1665.117      30.780
  O     -561.097    1666.220      30.265
  N     -560.981    1663.930      30.090
  C     -561.364    1662.798      30.638
  N     -561.094    1661.658      29.940
  C     -562.073    1662.706      31.936
  C     -562.242    1663.853      32.594
  O     -565.739    1663.291      36.002
  O     -563.504    1663.567      37.230
  H     -563.132    1668.190      31.304
  H     -563.424    1662.684      36.836
  H     -562.456    1661.759      32.295
  H     -562.723    1663.879      33.545
  H     -561.262    1667.050      32.372
  H     -564.116    1666.016      32.916
  H     -564.387    1668.073      34.232
  H     -561.841    1667.802      35.401
  H     -560.632    1661.752      29.036
  H     -562.636    1665.940      36.768
  H     -561.281    1660.714      30.326
  H     -563.975    1667.019      36.534
  P     -563.033    1670.365      34.307
  C     -560.993    1670.403      35.891
  O     -562.387    1670.271      35.769
  O     -564.606    1670.191      34.610
  O     -562.828    1671.654      33.527
  H     -565.014    1671.076      34.690
  H     -560.772    1670.599      36.969
  H     -560.599    1671.229      35.300
  H     -560.479    1669.497      35.625
  H     -566.982    1665.815      38.834
  H     -567.068    1664.177      38.231
  H     -567.275    1665.523      37.137

 3  4  5  6  7  8  9  10  11  12  13  23  27  28  29  30  32 0
 6-311+G(2d,p)
 ****
 34  35 0
 6-311+G(2d,p)
 ****
 1  2  14  15  16  17  18  19  20  21  22  24  25  26 0
 3-21G
 ****
 31  33  36  37  38  39  40  41  42  43  44  45  46 0
 3-21G
 ****


