%nproc=1
%NoSave
%Mem=1900MB
#P OB98/GEN NMR

erre ene a

0 1
  C       27.550      62.314    -251.694
  O       26.643      61.325    -252.137
  H       28.565      62.008    -251.964
  H       27.494      62.423    -250.607
  H       27.329      63.269    -252.175
  P       25.100      61.531    -251.749
  C       24.749      59.430    -250.256
  O       24.886      60.846    -250.315
  C       23.622      59.065    -249.298
  O       23.950      59.513    -247.959
  C       22.287      59.727    -249.626
  O       21.600      59.075    -250.681
  C       21.565      59.591    -248.297
  O       20.933      58.311    -248.163
  C       22.705      59.762    -247.275
  N       22.680      61.082    -246.646
  C       21.468      61.444    -246.063
  O       20.473      60.722    -246.056
  N       21.428      62.696    -245.511
  C       22.436      63.612    -245.531
  O       22.315      64.741    -245.067
  C       23.687      63.180    -246.182
  C       23.749      61.951    -246.705
  O       24.338      60.549    -252.759
  O       24.606      62.934    -251.853
  H       23.893      61.072    -253.450
  H       21.655      57.651    -248.172
  H       20.560      62.978    -245.078
  H       24.506      63.884    -246.214
  H       24.653      61.612    -247.194
  H       22.625      59.004    -246.484
  H       20.790      60.347    -248.197
  H       22.436      60.790    -249.846
  H       23.515      57.973    -249.281
  H       25.683      58.985    -249.892
  H       24.549      59.049    -251.261
  P       20.705      59.984    -251.659
  C       18.267      59.133    -251.154
  O       19.274      60.112    -250.946
  O       20.468      58.962    -252.871
  O       21.363      61.272    -252.030
  H       20.509      58.035    -252.578
  H       17.393      59.396    -250.596
  H       18.625      58.179    -250.828
  H       18.025      59.086    -252.195

 6  7  8  9  10  11  12  13  14  15  16  27  31  32  33  34  35 0
 6-311+G(2d,p)
 ****
 36  37 0
 6-311+G(2d,p)
 ****
 1  2  3  4  5  17  18  19  20  21  22  23  24  25 0
 3-21G
 ****
 26  28  29  30  38  39  40  41  42  43  44  45 0
 3-21G
 ****


