%nproc=1
%NoSave
%Mem=1900MB
#P OB98/GEN NMR

erre ene a

0 1
  C      176.331     467.271     258.582
  O      176.011     467.051     257.219
  H      176.319     466.317     259.106
  H      175.594     467.935     259.040
  H      177.327     467.709     258.664
  P      175.869     468.360     256.300
  C      174.161     467.109     254.764
  O      174.405     468.196     255.645
  C      172.691     467.083     254.358
  O      171.848     466.843     255.515
  C      172.175     468.382     253.752
  O      172.564     468.570     252.402
  C      170.676     468.159     253.893
  O      170.233     467.223     252.893
  C      170.599     467.556     255.307
  N      170.411     468.565     256.360
  C      169.108     469.048     256.539
  O      168.183     468.629     255.840
  N      168.885     470.022     257.485
  C      169.871     470.463     258.209
  N      169.600     471.425     259.122
  C      171.256     469.973     258.056
  C      171.453     469.041     257.124
  O      176.840     468.053     255.064
  O      176.111     469.665     256.974
  H      170.280     467.683     252.034
  H      176.713     468.736     254.356
  H      172.056     470.389     258.662
  H      172.446     468.633     256.960
  H      169.787     466.823     255.380
  H      170.090     469.068     253.749
  H      172.463     469.254     254.366
  H      172.549     466.233     253.668
  H      168.643     471.785     259.161
  H      174.428     466.185     255.280
  H      170.320     471.934     259.621
  H      174.782     467.215     253.868
  P      172.792     470.076     251.898
  C      172.451     469.326     249.425
  O      172.067     470.209     250.471
  O      174.356     470.110     251.528
  O      172.438     471.146     252.897
  H      174.744     470.982     251.718
  H      171.879     469.543     248.547
  H      172.271     468.315     249.727
  H      173.492     469.455     249.213

 6  7  8  9  10  11  12  13  14  15  16  26  30  31  32  33  35 0
 6-311+G(2d,p)
 ****
 37  38 0
 6-311+G(2d,p)
 ****
 1  2  3  4  5  17  18  19  20  21  22  23  24  25 0
 3-21G
 ****
 27  28  29  34  36  39  40  41  42  43  44  45  46 0
 3-21G
 ****


