%nproc=1
%NoSave
%Mem=1900MB
#P OB98/GEN NMR

erre ene a

0 1
  C     -391.829    -189.805     137.436
  O     -392.975    -188.970     137.417
  P     -394.161    -189.323     138.442
  C     -395.923    -189.749     136.572
  O     -395.154    -190.295     137.643
  C     -397.324    -190.355     136.564
  O     -397.276    -191.702     136.063
  C     -397.967    -190.452     137.934
  O     -398.450    -189.187     138.348
  C     -399.059    -191.484     137.688
  O     -400.253    -190.860     137.188
  C     -398.419    -192.396     136.614
  N     -398.052    -193.705     137.133
  C     -398.105    -194.762     136.224
  O     -398.462    -194.559     135.058
  N     -397.792    -196.026     136.663
  C     -397.465    -196.214     137.902
  N     -397.155    -197.484     138.286
  C     -397.417    -195.127     138.901
  C     -397.730    -193.906     138.457
  O     -394.980    -187.950     138.536
  O     -393.712    -189.809     139.780
  H     -399.959    -190.263     136.470
  H     -395.448    -187.883     139.392
  H     -397.136    -195.338     139.926
  H     -397.720    -193.053     139.124
  H     -399.120    -192.548     135.780
  H     -399.335    -192.012     138.604
  H     -397.251    -190.838     138.673
  H     -397.951    -189.756     135.883
  H     -397.203    -198.211     137.579
  H     -395.427    -189.982     135.623
  H     -396.864    -197.727     139.223
  H     -395.966    -188.662     136.683
  P     -399.336    -189.126     139.686
  C     -401.677    -189.283     138.641
  O     -400.656    -189.971     139.339
  O     -399.885    -187.615     139.654
  O     -398.656    -189.453     140.968
  H     -400.364    -187.425     140.482
  H     -402.436    -190.002     138.342
  H     -401.271    -188.798     137.747
  H     -402.137    -188.535     139.296
  H     -391.124    -189.459     136.710
  H     -392.116    -190.810     137.205
  H     -391.383    -189.776     138.408

 3  4  5  6  7  8  9  10  11  12  13  21  23  27  28  29  30  32 0
 6-311+G(2d,p)
 ****
 34  35 0
 6-311+G(2d,p)
 ****
 1  2  14  15  16  17  18  19  20  22  24  25  26 0
 3-21G
 ****
 31  33  36  37  38  39  40  41  42  43  44  45  46 0
 3-21G
 ****


