%nproc=1
%NoSave
%Mem=1900MB
#P OB98/GEN NMR

erre ene a

0 1
  C      -60.544    -495.448    -888.240
  O      -59.497    -495.856    -889.090
  H      -60.192    -495.475    -887.210
  H      -61.389    -496.139    -888.340
  H      -60.874    -494.431    -888.470
  P      -59.652    -495.517    -890.650
  C      -60.557    -497.927    -890.990
  O      -59.651    -496.927    -891.430
  C      -60.496    -499.141    -891.930
  O      -61.044    -498.743    -893.240
  C      -59.083    -499.696    -892.160
  O      -59.157    -501.124    -892.270
  C      -58.717    -499.140    -893.530
  O      -57.721    -499.915    -894.180
  C      -60.088    -499.177    -894.220
  N      -61.433    -499.060    -899.050
  C      -61.712    -499.982    -898.070
  N      -62.410    -501.084    -898.430
  N      -61.343    -499.839    -896.820
  C      -60.654    -498.691    -896.590
  C      -60.315    -497.696    -897.480
  C      -60.725    -497.867    -898.860
  O      -60.484    -497.104    -899.780
  N      -59.585    -496.722    -896.870
  C      -59.453    -497.138    -895.610
  N      -60.092    -498.321    -895.410
  O      -58.226    -494.885    -891.020
  O      -60.774    -494.603    -891.010
  H      -58.030    -500.847    -894.240
  H      -58.273    -493.917    -890.960
  H      -61.733    -499.226    -900.000
  H      -58.899    -496.616    -894.830
  H      -60.359    -500.192    -894.560
  H      -58.360    -498.107    -893.430
  H      -62.769    -501.242    -899.370
  H      -58.365    -499.426    -891.390
  H      -62.657    -501.741    -897.720
  H      -61.167    -499.919    -891.530
  H      -61.568    -497.527    -890.990
  H      -60.295    -498.228    -889.970
  P      -58.866    -501.998    -890.950
  C      -56.262    -501.988    -890.780
  O      -57.437    -502.707    -891.140
  O      -59.894    -503.223    -891.090
  O      -59.066    -501.237    -889.680
  H      -60.204    -503.485    -890.190
  H      -55.401    -502.596    -890.966
  H      -56.303    -501.736    -889.741
  H      -56.199    -501.093    -891.362

 6  7  8  9  10  11  12  13  14  15  26  29  33  34 0
 6-311+G(2d,p)
 ****
 36  38  39  40  41 0
 6-311+G(2d,p)
 ****
 1  2  3  4  5  16  17  18  19  20  21  22  23  24  25 0
 3-21G
 ****
 27  28  30  31  32  35  37  42  43  44  45  46  47 0
 3-21G
 ****
 48  49 0
 3-21G
 ****


