%nproc=1
%NoSave
%Mem=1900MB
#P OB98/GEN NMR

erre ene a

0 1
  C      -60.146     188.010    -103.588
  O      -61.296     188.512    -102.940
  H      -60.090     186.933    -103.415
  H      -59.247     188.475    -103.180
  H      -60.199     188.189    -104.667
  P      -61.691     190.051    -103.145
  C      -60.372     190.746    -101.040
  O      -60.542     190.923    -102.443
  C      -60.435     192.098    -100.335
  O      -59.214     192.839    -100.558
  C      -61.565     192.999    -100.827
  O      -62.812     192.571    -100.313
  C      -61.084     194.348    -100.319
  O      -61.366     194.505     -98.919
  C      -59.557     194.244    -100.555
  N      -59.129     194.894    -101.796
  C      -58.380     196.057    -101.652
  O      -58.079     196.535    -100.560
  N      -58.017     196.680    -102.817
  C      -58.406     196.310    -104.076
  O      -58.246     197.017    -105.067
  C      -59.134     195.037    -104.170
  C      -59.471     194.404    -103.043
  O      -63.086     190.420    -102.762
  O      -61.425     190.303    -104.706
  H      -62.276     190.279    -105.187
  H      -61.206     195.446     -98.708
  H      -57.512     197.550    -102.725
  H      -59.404     194.676    -105.154
  H      -60.034     193.479    -103.086
  H      -59.007     194.705     -99.723
  H      -61.563     195.183    -100.834
  H      -61.580     193.018    -101.923
  H      -60.527     191.916     -99.255
  H      -59.391     190.291    -100.863
  H      -61.151     190.073    -100.666
  P      -64.181     192.920    -101.067
  C      -65.363     194.368     -99.314
  O      -64.676     194.356    -100.558
  O      -65.223     191.850    -101.016
  O      -63.737     193.209    -102.581
  H      -64.268     192.651    -103.182
  H      -65.646     195.371     -99.072
  H      -64.721     193.984     -98.549
  H      -66.239     193.757     -99.384

 6  7  8  9  10  11  12  13  14  15  16  27  31  32  33  34  35 0
 6-311+G(2d,p)
 ****
 36  37 0
 6-311+G(2d,p)
 ****
 1  2  3  4  5  17  18  19  20  21  22  23  24  25 0
 3-21G
 ****
 26  28  29  30  38  39  40  41  42  43  44  45 0
 3-21G
 ****


