%nproc=1
%NoSave
%Mem=1900MB
#P OB98/GEN NMR

erre ene a

0 1
  C      -38.605    -183.285     -69.469
  O      -39.521    -183.723     -68.487
  H      -38.851    -183.726     -70.438
  H      -38.668    -182.197     -69.551
  H      -37.586    -183.559     -69.184
  P      -39.613    -185.305     -68.238
  C      -38.373    -185.198     -65.963
  O      -38.375    -185.704     -67.291
  C      -36.992    -185.382     -65.340
  O      -36.014    -184.745     -66.200
  C      -36.843    -184.787     -63.928
  O      -36.447    -185.805     -63.004
  C      -35.706    -183.786     -64.057
  O      -34.819    -183.794     -62.940
  C      -35.001    -184.213     -65.338
  N      -31.015    -181.062     -64.955
  C      -31.236    -182.291     -64.438
  N      -32.272    -183.123     -64.664
  C      -33.129    -182.583     -65.547
  C      -33.027    -181.354     -66.176
  C      -31.917    -180.565     -65.833
  N      -31.721    -179.291     -66.317
  N      -34.108    -181.140     -67.012
  C      -34.870    -182.203     -66.856
  N      -34.329    -183.093     -65.966
  O      -39.213    -185.925     -69.659
  O      -40.944    -185.796     -67.776
  H      -35.376    -183.767     -62.138
  H      -39.858    -186.613     -69.910
  H      -30.482    -182.651     -63.743
  H      -35.835    -182.359     -67.321
  H      -34.259    -185.001     -65.158
  H      -36.130    -182.779     -64.153
  H      -37.758    -184.301     -63.575
  H      -36.760    -186.454     -65.326
  H      -39.109    -185.743     -65.362
  H      -30.962    -178.754     -65.929
  H      -32.444    -178.874     -66.885
  H      -38.654    -184.141     -65.984
  P      -37.620    -186.727     -62.400
  C      -36.804    -188.913     -63.553
  O      -37.839    -187.949     -63.417
  O      -38.928    -185.828     -62.617
  O      -37.425    -187.097     -60.969
  H      -39.604    -186.057     -61.952
  H      -37.101    -189.657     -64.262
  H      -36.621    -189.376     -62.606
  H      -35.911    -188.432     -63.893

 6  7  8  9  10  11  12  13  14  15  25  28  32  33  34  35 0
 6-311+G(2d,p)
 ****
 36  39  40 0
 6-311+G(2d,p)
 ****
 1  2  3  4  5  16  17  18  19  20  21  22  23  24 0
 3-21G
 ****
 26  27  29  30  31  37  38  41  42  43  44  45  46  47  48 0
 3-21G
 ****


