%nproc=1
%NoSave
%Mem=1900MB
#P OB98/GEN NMR

erre ene a

0 1
  C     -136.268     268.626    -206.773
  O     -135.342     267.561    -206.851
  H     -137.268     268.210    -206.632
  H     -136.259     269.206    -207.698
  H     -136.038     269.279    -205.923
  P     -133.779     267.898    -206.924
  C     -133.774     267.858    -209.504
  O     -133.526     268.628    -208.332
  C     -132.554     267.899    -210.419
  O     -132.397     269.222    -210.989
  C     -131.237     267.594    -209.709
  O     -131.111     266.207    -209.455
  C     -130.244     268.160    -210.711
  O     -130.038     267.254    -211.806
  C     -130.979     269.435    -211.194
  N     -130.527     270.647    -210.509
  C     -129.166     270.926    -210.594
  O     -128.368     270.214    -211.200
  N     -128.744     272.039    -209.918
  C     -129.516     272.825    -209.108
  O     -129.056     273.674    -208.349
  C     -130.956     272.525    -209.114
  C     -131.387     271.458    -209.792
  O     -132.854     266.764    -206.626
  O     -133.601     269.093    -205.868
  H     -133.230     268.735    -205.037
  H     -129.695     267.791    -212.548
  H     -127.751     272.227    -209.931
  H     -131.612     273.165    -208.537
  H     -132.440     271.199    -209.788
  H     -130.833     269.578    -212.275
  H     -129.264     268.348    -210.267
  H     -131.170     268.169    -208.780
  H     -132.721     267.194    -211.245
  H     -134.634     268.290    -210.027
  H     -134.011     266.829    -209.214
  P     -130.306     265.670    -208.178
  C     -128.241     264.986    -209.535
  O     -128.740     265.809    -208.486
  O     -130.726     264.323    -207.688
  O     -130.553     266.789    -207.056
  H     -130.894     266.359    -206.248
  H     -127.192     265.158    -209.655
  H     -128.748     265.224    -210.447
  H     -128.408     263.958    -209.292

 6  7  8  9  10  11  12  13  14  15  16  27  31  32  33  34  35 0
 6-311+G(2d,p)
 ****
 36  37 0
 6-311+G(2d,p)
 ****
 1  2  3  4  5  17  18  19  20  21  22  23  24  25 0
 3-21G
 ****
 26  28  29  30  38  39  40  41  42  43  44  45 0
 3-21G
 ****


