%nproc=1
%NoSave
%Mem=1900MB
#P OB98/GEN NMR

erre ene a

0 1
  C      455.906     156.708      -6.228
  O      457.029     157.556      -6.089
  H      455.712     156.232      -5.261
  H      456.117     155.932      -6.966
  H      455.019     157.272      -6.524
  P      457.341     158.619      -7.244
  C      459.452     157.265      -7.861
  O      458.915     158.543      -7.542
  C      460.963     157.226      -7.601
  O      461.630     158.096      -8.556
  C      461.309     157.767      -6.204
  O      462.514     157.197      -5.690
  C      461.537     159.246      -6.455
  O      462.343     159.871      -5.460
  C      462.167     159.225      -7.849
  N      464.032     162.515     -11.271
  C      464.669     161.483     -10.608
  N      465.981     161.304     -10.907
  N      464.091     160.716      -9.733
  C      462.798     161.052      -9.480
  C      462.060     162.059     -10.054
  C      462.708     162.889     -11.058
  O      462.196     163.826     -11.649
  N      460.788     162.098      -9.535
  C      460.759     161.126      -8.658
  N      461.946     160.441      -8.606
  O      457.201     160.029      -6.499
  O      456.457     158.536      -8.452
  H      462.273     160.831      -5.586
  H      457.023     160.737      -7.153
  H      464.515     163.055     -11.962
  H      459.901     160.868      -8.054
  H      463.255     159.077      -7.770
  H      460.561     159.752      -6.439
  H      466.506     161.998     -11.427
  H      460.508     157.608      -5.483
  H      466.533     160.774     -10.228
  H      461.349     156.219      -7.764
  H      459.236     157.080      -8.918
  H      458.945     156.483      -7.287
  P      462.396     155.991      -4.637
  C      462.158     157.408      -2.400
  O      462.886     156.487      -3.195
  O      463.551     154.980      -5.098
  O      461.060     155.332      -4.592
  H      463.152     154.138      -5.396
  H      462.684     157.583      -1.485
  H      461.190     157.006      -2.184
  H      462.050     158.330      -2.931

 6  7  8  9  10  11  12  13  14  15  26  29  33  34 0
 6-311+G(2d,p)
 ****
 36  38  39  40  41 0
 6-311+G(2d,p)
 ****
 1  2  3  4  5  16  17  18  19  20  21  22  23  24  25 0
 3-21G
 ****
 27  28  30  31  32  35  37  42  43  44  45  46  47 0
 3-21G
 ****
 48  49 0
 3-21G
 ****


