%nproc=1
%NoSave
%Mem=1900MB
#P OB98/GEN NMR

erre ene a

0 1
  C      -19.278     -39.559     -35.770
  O      -17.891     -39.694     -35.539
  H      -19.661     -38.752     -35.142
  H      -19.789     -40.486     -35.498
  H      -19.483     -39.315     -36.815
  P      -17.025     -40.602     -36.534
  C      -14.930     -40.980     -35.079
  O      -15.484     -40.302     -36.197
  C      -13.548     -40.418     -34.730
  O      -13.720     -39.188     -33.969
  C      -12.685     -41.365     -33.883
  O      -11.315     -41.118     -34.226
  C      -12.974     -40.872     -32.479
  O      -12.002     -41.322     -31.562
  C      -13.036     -39.361     -32.714
  N      -13.700     -38.652     -31.621
  C      -12.926     -38.368     -30.504
  O      -11.749     -38.711     -30.394
  N      -13.558     -37.712     -29.485
  C      -14.881     -37.376     -29.453
  O      -15.403     -36.816     -28.499
  C      -15.662     -37.741     -30.646
  C      -15.045     -38.350     -31.662
  O      -17.377     -40.498     -37.980
  O      -17.218     -42.091     -35.979
  H      -11.879     -42.291     -31.646
  H      -17.159     -42.733     -36.712
  H      -13.008     -37.489     -28.672
  H      -16.715     -37.497     -30.648
  H      -15.594     -38.631     -32.554
  H      -12.025     -38.944     -32.821
  H      -13.945     -41.243     -32.133
  H      -12.932     -42.418     -34.029
  H      -13.037     -40.145     -35.661
  H      -14.845     -42.041     -35.336
  H      -15.600     -40.876     -34.219
  P      -10.169     -42.219     -34.010
  C       -8.691     -40.891     -32.371
  O       -8.792     -41.471     -33.669
  O      -10.065     -43.220     -35.114
  O      -10.551     -42.938     -32.631
  H      -10.216     -43.854     -32.633
  H       -7.734     -40.424     -32.262
  H       -8.802     -41.655     -31.630
  H       -9.461     -40.159     -32.247

 6  7  8  9  10  11  12  13  14  15  16  26  31  32  33  34  35 0
 6-311+G(2d,p)
 ****
 36  37 0
 6-311+G(2d,p)
 ****
 1  2  3  4  5  17  18  19  20  21  22  23  24  25 0
 3-21G
 ****
 27  28  29  30  38  39  40  41  42  43  44  45 0
 3-21G
 ****


