%nproc=1
%NoSave
%Mem=1900MB
#P OB98/GEN NMR

erre ene a

0 1
  C      -51.737     105.309      33.306
  O      -51.214     106.041      34.392
  P      -49.766     105.694      34.986
  C      -49.198     108.000      33.993
  O      -48.732     106.680      34.253
  C      -48.028     108.907      33.623
  O      -47.379     108.452      32.407
  C      -48.426     110.344      33.320
  O      -48.938     111.114      34.384
  C      -47.174     110.860      32.630
  O      -46.173     111.229      33.576
  C      -46.727     109.610      31.829
  N      -47.020     109.743      30.403
  C      -46.030     110.339      29.632
  O      -44.961     110.743      30.087
  N      -46.319     110.492      28.303
  C      -47.494     110.156      27.694
  O      -47.703     110.362      26.505
  C      -48.508     109.544      28.564
  C      -48.232     109.367      29.859
  O      -49.388     104.253      34.939
  O      -49.821     106.304      36.467
  H      -46.477     112.042      34.025
  H      -49.984     107.263      36.506
  H      -45.621     110.934      27.727
  H      -49.446     109.254      28.110
  H      -48.966     108.920      30.521
  H      -45.647     109.451      31.942
  H      -47.381     111.743      32.017
  H      -49.222     110.323      32.564
  H      -47.286     108.852      34.424
  H      -49.680     108.391      34.895
  H      -49.949     107.972      33.196
  P      -50.036     112.264      34.193
  C      -51.456     111.850      36.321
  O      -51.388     111.794      34.913
  O      -50.154     112.858      32.829
  O      -49.500     113.390      35.206
  H      -49.740     114.269      34.858
  H      -52.424     111.453      36.640
  H      -51.373     112.884      36.666
  H      -50.666     111.240      36.768
  H      -52.706     105.686      33.056
  H      -51.815     104.277      33.576
  H      -51.087     105.409      32.462

 3  4  5  6  7  8  9  10  11  12  13  23  28  29  30  31  32 0
 6-311+G(2d,p)
 ****
 33  34 0
 6-311+G(2d,p)
 ****
 1  2  14  15  16  17  18  19  20  21  22  24  25  26  27 0
 3-21G
 ****
 35  36  37  38  39  40  41  42  43  44  45 0
 3-21G
 ****


