%nproc=1
%NoSave
%Mem=1900MB
#P OB98/GEN NMR

erre ene a

0 1
  C       79.848      17.268      92.415
  O       79.495      17.387      93.777
  H       79.606      16.256      92.079
  H       80.920      17.434      92.277
  H       79.279      17.980      91.811
  P       79.859      18.750      94.543
  C       82.340      18.368      95.185
  O       80.985      18.316      95.606
  C       83.220      17.565      96.140
  O       83.414      18.271      97.383
  C       82.652      16.210      96.549
  O       82.732      15.231      95.525
  C       83.554      15.891      97.730
  O       84.843      15.467      97.250
  C       83.648      17.274      98.419
  N       82.686      17.435      99.508
  C       82.821      16.564     100.597
  O       83.711      15.715     100.612
  N       81.919      16.651     101.630
  C       80.956      17.517     101.572
  N       80.061      17.529     102.600
  C       80.787      18.464     100.454
  C       81.673      18.367      99.465
  O       78.709      19.519      95.108
  O       80.722      19.582      93.482
  H       85.357      15.183      98.027
  H       80.963      20.442      93.905
  H       79.962      19.161     100.452
  H       81.605      19.018      98.600
  H       84.657      17.447      98.809
  H       83.166      15.092      98.368
  H       81.624      16.311      96.912
  H       84.208      17.462      95.672
  H       80.183      16.837     103.326
  H       82.648      19.417      95.157
  H       79.150      17.965     102.500
  H       82.440      17.941      94.182
  P       81.390      14.435      95.142
  C       82.335      12.023      94.864
  O       81.839      13.191      94.233
  O       80.674      15.421      94.108
  O       80.506      14.064      96.290
  H       80.028      15.998      94.562
  H       82.587      11.296      94.121
  H       81.585      11.623      95.515
  H       83.207      12.268      95.433

 6  7  8  9  10  11  12  13  14  15  16  26  30  31  32  33  35 0
 6-311+G(2d,p)
 ****
 37  38 0
 6-311+G(2d,p)
 ****
 1  2  3  4  5  17  18  19  20  21  22  23  24  25 0
 3-21G
 ****
 27  28  29  34  36  39  40  41  42  43  44  45  46 0
 3-21G
 ****


