%nproc=1
%NoSave
%Mem=1900MB
#P OB98/GEN NMR

erre ene a

0 1
  C      586.755     -75.334    -147.739
  O      587.712     -75.021    -146.733
  P      587.678     -73.565    -146.070
  C      586.473     -74.342    -143.844
  O      586.523     -73.493    -144.972
  C      585.133     -74.148    -143.123
  O      584.050     -74.676    -143.924
  C      585.065     -74.848    -141.768
  O      585.593     -74.040    -140.729
  C      583.582     -75.122    -141.627
  O      582.885     -73.928    -141.231
  C      583.212     -75.517    -143.078
  N      583.393     -76.924    -143.486
  C      582.623     -77.921    -142.888
  O      581.784     -77.719    -142.012
  N      582.838     -79.196    -143.337
  C      583.595     -79.557    -144.413
  O      583.706     -80.712    -144.807
  C      584.267     -78.450    -145.103
  C      584.148     -77.213    -144.612
  O      587.150     -72.624    -147.246
  O      588.995     -73.100    -145.532
  H      583.253     -73.651    -140.377
  H      587.835     -71.984    -147.507
  H      582.346     -79.942    -142.871
  H      584.838     -78.684    -145.990
  H      584.643     -76.388    -145.116
  H      582.166     -75.255    -143.293
  H      583.393     -75.860    -140.849
  H      585.589     -75.807    -141.814
  H      584.958     -73.072    -142.995
  H      587.299     -74.129    -143.164
  H      586.583     -75.384    -144.164
  P      586.994     -74.419    -140.056
  C      588.105     -72.323    -141.040
  O      588.115     -73.739    -140.983
  O      587.205     -75.863    -139.748
  O      587.036     -73.506    -138.739
  H      586.727     -74.017    -137.955
  H      589.001     -71.986    -141.566
  H      588.103     -71.902    -140.029
  H      587.223     -71.982    -141.586
  H      586.909     -76.337    -148.078
  H      586.867     -74.658    -148.561
  H      585.769     -75.242    -147.334

 3  4  5  6  7  8  9  10  11  12  13  23  28  29  30  31  32 0
 6-311+G(2d,p)
 ****
 33  34 0
 6-311+G(2d,p)
 ****
 1  2  14  15  16  17  18  19  20  21  22  24  25  26  27 0
 3-21G
 ****
 35  36  37  38  39  40  41  42  43  44  45 0
 3-21G
 ****


