%nproc=1
%NoSave
%Mem=1900MB
#P OB98/GEN NMR

erre ene a

0 1
  C      434.302     103.007    -148.892
  O      433.934     101.883    -149.696
  P      435.018     100.690    -149.802
  C      433.868      99.988    -152.036
  O      434.408      99.573    -150.783
  C      432.944      98.920    -152.615
  O      433.681      97.720    -152.920
  C      431.834      98.465    -151.672
  O      430.753      99.384    -151.652
  C      431.425      97.144    -152.302
  O      430.508      97.392    -153.383
  C      432.758      96.596    -152.841
  N      433.400      91.627    -152.115
  C      432.715      92.292    -153.114
  N      432.149      91.527    -154.073
  N      432.602      93.593    -153.170
  C      433.250      94.232    -152.159
  C      433.956      93.688    -151.118
  C      434.045      92.239    -151.044
  O      434.613      91.587    -150.170
  N      434.476      94.651    -150.289
  C      434.108      95.786    -150.862
  N      433.357      95.588    -151.990
  O      434.940     100.002    -148.361
  O      436.405     101.158    -150.123
  H      430.953      98.012    -153.998
  H      435.788      99.571    -148.143
  H      433.448      90.615    -152.117
  H      434.365      96.775    -150.496
  H      432.659      96.188    -153.852
  H      430.912      96.478    -151.598
  H      432.257      90.525    -154.128
  H      432.232      98.282    -150.653
  H      431.677      92.002    -154.832
  H      432.504      99.308    -153.544
  H      434.670     100.195    -152.741
  H      433.323     100.942    -151.888
  P      430.967     100.764    -150.856
  C      428.636     100.786    -149.712
  O      429.501     101.380    -150.671
  O      431.652     101.710    -151.954
  O      431.800     100.647    -149.618
  H      432.228     102.377    -151.522
  H      429.164     100.552    -148.796
  H      428.201      99.875    -150.143
  H      427.817     101.492    -149.489
  H      433.509     103.725    -148.899
  H      435.191     103.453    -149.287
  H      434.481     102.684    -147.888

 3  4  5  6  7  8  9  10  11  12  23  26  30  31  33  0
 6-311+G(2d,p)
 ****
 35  36  37  38 0
 6-311+G(2d,p)
 ****
 1  2  13  14  15  16  17  18  19  20  21  22  24  25  27  28  29 0
 3-21G
 ****
 32  34  39  40  41  42  43  44  45  46  47  48  49 0
 3-21G
 ****


