%nproc=1
%NoSave
%Mem=1900MB
#P OB98/GEN NMR

erre ene a

0 1
  C      -62.324     -75.658     314.258
  O      -63.228     -76.455     315.001
  H      -61.911     -74.890     314.920
  H      -62.852     -75.167     313.435
  H      -61.505     -76.269     313.868
  P      -63.814     -77.756     314.263
  C      -66.185     -77.511     315.371
  O      -65.008     -78.282     315.199
  C      -66.565     -77.432     316.851
  O      -65.616     -76.570     317.532
  C      -67.968     -76.867     317.099
  O      -68.533     -77.537     318.228
  C      -67.700     -75.413     317.461
  O      -68.765     -74.845     318.214
  C      -66.358     -75.530     318.203
  N      -65.620     -74.268     318.223
  C      -66.126     -73.258     319.049
  O      -67.157     -73.448     319.700
  N      -65.486     -72.046     319.079
  C      -64.467     -71.836     318.311
  N      -63.890     -70.603     318.371
  C      -63.923     -72.857     317.392
  C      -64.535     -74.042     317.407
  O      -62.646     -78.823     314.503
  O      -64.173     -77.545     312.831
  H      -68.538     -73.912     318.422
  H      -62.299     -78.821     315.411
  H      -63.076     -72.629     316.760
  H      -64.198     -74.852     316.771
  H      -66.520     -75.852     319.241
  H      -67.578     -74.816     316.549
  H      -68.627     -76.977     316.235
  H      -66.459     -78.430     317.293
  H      -64.309     -69.926     319.000
  H      -67.014     -77.949     314.809
  H      -63.126     -70.311     317.779
  H      -65.995     -76.507     314.974
  P      -70.079     -77.958     318.202
  C      -71.001     -76.882     320.369
  O      -70.620     -78.086     319.708
  O      -70.426     -79.098     317.306
  O      -70.800     -76.611     317.696
  H      -71.502     -76.868     317.068
  H      -71.340     -77.110     321.358
  H      -71.790     -76.409     319.822
  H      -70.160     -76.223     320.423

 6  7  8  9  10  11  12  13  14  15  16  26  30  31  32  33  35 0
 6-311+G(2d,p)
 ****
 37  38 0
 6-311+G(2d,p)
 ****
 1  2  3  4  5  17  18  19  20  21  22  23  24  25 0
 3-21G
 ****
 27  28  29  34  36  39  40  41  42  43  44  45  46 0
 3-21G
 ****


