%nproc=1
%NoSave
%Mem=1900MB
#P OB98/GEN NMR

erre ene a

0 1
  C     -379.071    -628.935     214.786
  O     -378.933    -630.176     214.130
  H     -379.850    -628.353     214.288
  H     -378.130    -628.377     214.724
  H     -379.348    -629.073     215.836
  P     -378.070    -631.303     214.870
  C     -379.424    -633.371     214.093
  O     -378.208    -632.648     214.003
  C     -380.325    -633.058     212.902
  O     -379.621    -633.379     211.679
  C     -381.651    -633.830     212.900
  O     -382.689    -632.972     212.419
  C     -381.402    -634.938     211.890
  O     -382.611    -635.427     211.306
  C     -380.462    -634.252     210.905
  N     -379.783    -636.323     206.361
  C     -380.617    -635.302     206.758
  N     -381.387    -634.740     205.805
  N     -380.686    -634.855     207.991
  C     -379.830    -635.479     208.829
  C     -378.957    -636.518     208.563
  C     -378.911    -637.018     207.208
  O     -378.216    -637.936     206.796
  N     -378.284    -636.903     209.692
  C     -378.737    -636.104     210.646
  N     -379.674    -635.217     210.165
  O     -378.926    -631.616     216.185
  O     -376.670    -630.918     215.215
  H     -382.357    -636.025     210.573
  H     -378.419    -631.364     216.981
  H     -379.786    -636.645     205.412
  H     -378.443    -636.122     211.675
  H     -381.007    -633.644     210.171
  H     -380.905    -635.785     212.390
  H     -381.355    -634.998     204.837
  H     -381.924    -634.218     213.879
  H     -381.977    -633.958     206.067
  H     -380.506    -631.972     212.883
  H     -379.938    -633.087     215.020
  H     -379.208    -634.448     214.119
  P     -383.807    -632.527     213.486
  C     -384.007    -630.090     212.616
  O     -384.668    -631.331     212.840
  O     -382.945    -631.795     214.629
  O     -384.603    -633.656     214.046
  H     -382.910    -632.357     215.426
  H     -384.695    -629.392     212.186
  H     -383.185    -630.239     211.947
  H     -383.644    -629.706     213.547

 6  7  8  9  10  11  12  13  14  15  26  29  33  34 0
 6-311+G(2d,p)
 ****
 36  38  39  40  41 0
 6-311+G(2d,p)
 ****
 1  2  3  4  5  16  17  18  19  20  21  22  23  24  25 0
 3-21G
 ****
 27  28  30  31  32  35  37  42  43  44  45  46  47 0
 3-21G
 ****
 48  49 0
 3-21G
 ****


