%nproc=1
%NoSave
%Mem=1900MB
#P OB98/GEN NMR

erre ene a

0 1
  C      551.573     408.551    -121.809
  O      551.239     407.257    -122.280
  P      550.543     407.152    -123.721
  C      551.517     404.793    -124.212
  O      550.353     405.590    -124.006
  C      551.142     403.458    -124.849
  O      550.340     403.681    -126.022
  C      552.334     402.642    -125.318
  O      552.966     402.004    -124.225
  C      551.673     401.681    -126.298
  O      551.165     400.521    -125.618
  C      550.518     402.530    -126.879
  N      550.756     402.926    -128.259
  C      550.930     401.879    -129.169
  O      550.899     400.708    -128.780
  N      551.176     402.183    -130.482
  C      551.246     403.427    -130.854
  N      551.483     403.671    -132.170
  C      551.084     404.559    -129.921
  C      550.850     404.241    -128.652
  O      551.712     407.582    -124.725
  O      549.318     407.996    -123.884
  H      550.583     400.864    -124.907
  H      551.343     407.953    -125.548
  H      551.151     405.576    -130.278
  H      550.721     405.013    -127.894
  H      549.578     401.968    -126.842
  H      552.378     401.321    -127.056
  H      553.050     403.278    -125.855
  H      550.546     402.888    -124.127
  H      551.598     402.874    -132.785
  H      551.997     404.599    -123.247
  H      551.532     404.602    -132.560
  H      552.219     405.346    -124.847
  P      554.506     401.605    -124.384
  C      554.550     401.644    -121.819
  O      554.901     400.926    -122.988
  O      555.238     403.029    -124.283
  O      554.894     400.859    -125.617
  H      556.191     402.927    -124.469
  H      554.730     401.006    -120.948
  H      553.490     401.919    -121.843
  H      555.168     402.541    -121.733
  H      552.027     408.473    -120.843
  H      550.686     409.145    -121.739
  H      552.258     409.012    -122.489

 3  4  5  6  7  8  9  10  11  12  13  21  23  27  28  29  30  32 0
 6-311+G(2d,p)
 ****
 34  35 0
 6-311+G(2d,p)
 ****
 1  2  14  15  16  17  18  19  20  22  24  25  26 0
 3-21G
 ****
 31  33  36  37  38  39  40  41  42  43  44  45  46 0
 3-21G
 ****


