%nproc=1
%NoSave
%Mem=1900MB
#P OB98/GEN NMR

erre ene a

0 1
  C      527.067     465.775     237.063
  O      526.289     465.396     238.181
  H      526.419     465.811     236.184
  H      527.861     465.043     236.883
  H      527.500     466.765     237.219
  P      527.017     465.227     239.598
  C      526.033     467.362     240.672
  O      527.201     466.711     240.185
  C      526.086     467.466     242.197
  O      526.311     466.168     242.780
  C      527.197     468.372     242.728
  O      526.795     469.731     242.670
  C      527.315     467.857     244.151
  O      526.221     468.369     244.942
  C      527.153     466.337     243.955
  N      530.624     463.305     246.078
  C      529.551     463.957     246.651
  N      529.401     463.807     247.984
  N      528.712     464.700     245.977
  C      529.028     464.820     244.669
  C      530.070     464.238     243.992
  C      530.955     463.361     244.731
  O      531.904     462.746     244.252
  N      530.127     464.662     242.689
  C      529.086     465.462     242.565
  N      528.386     465.601     243.746
  O      528.276     464.413     239.597
  O      525.894     464.598     240.547
  H      525.395     468.082     244.503
  H      525.939     463.624     240.546
  H      531.243     462.749     246.647
  H      528.783     465.963     241.649
  H      526.638     465.864     244.799
  H      528.239     468.166     244.638
  H      530.094     463.373     248.572
  H      528.143     468.197     242.206
  H      528.652     464.326     248.428
  H      525.098     467.807     242.542
  H      525.169     466.767     240.358
  H      525.949     468.363     240.240
  P      527.823     470.887     242.221
  C      526.710     471.433     239.950
  O      527.819     470.855     240.618
  O      529.169     470.804     242.844
  O      527.042     472.248     242.531
  H      527.148     472.546     243.470
  H      526.842     471.340     238.892
  H      526.637     472.468     240.210
  H      525.814     470.927     240.243

 6  7  8  9  10  11  12  13  14  15  26  29  33  34 0
 6-311+G(2d,p)
 ****
 36  38  39  40  41 0
 6-311+G(2d,p)
 ****
 1  2  3  4  5  16  17  18  19  20  21  22  23  24  25 0
 3-21G
 ****
 27  28  30  31  32  35  37  42  43  44  45  46  47 0
 3-21G
 ****
 48  49 0
 3-21G
 ****


