%nproc=1
%NoSave
%Mem=1900MB
#P OB98/GEN NMR

erre ene a

0 1
  C       36.680     -21.577      13.910
  O       36.417     -21.840      15.276
  P       34.952     -22.287      15.739
  C       34.055     -19.880      15.323
  O       34.187     -20.963      16.217
  C       33.796     -18.568      16.075
  O       33.689     -17.508      15.094
  C       32.497     -18.532      16.872
  O       32.578     -17.472      17.826
  C       31.487     -18.177      15.803
  O       30.285     -17.644      16.352
  C       32.287     -17.210      14.894
  N       31.926     -17.378      13.475
  C       30.569     -17.447      13.175
  O       29.688     -17.299      14.021
  N       30.258     -17.778      11.885
  C       31.161     -18.083      10.910
  O       30.874     -18.666       9.871
  C       32.562     -17.760      11.219
  C       32.881     -17.452      12.479
  O       35.235     -23.077      17.101
  O       34.210     -23.125      14.755
  H       29.908     -18.339      16.940
  H       35.279     -24.037      16.931
  H       29.280     -17.969      11.704
  H       33.292     -17.845      10.426
  H       33.916     -17.260      12.748
  H       32.107     -16.163      15.167
  H       31.222     -19.084      15.245
  H       32.249     -19.474      17.370
  H       34.653     -18.345      16.722
  H       33.243     -20.089      14.621
  H       34.964     -19.771      14.721
  P       32.206     -17.805      19.350
  C       29.883     -16.715      19.405
  O       31.225     -16.636      19.840
  O       33.356     -18.100      20.254
  O       31.218     -19.061      19.214
  H       31.165     -19.530      20.067
  H       29.241     -16.242      20.153
  H       29.565     -17.752      19.270
  H       29.779     -16.178      18.459
  H       37.705     -21.294      13.792
  H       36.049     -20.782      13.572
  H       36.485     -22.457      13.333

 3  4  5  6  7  8  9  10  11  12  13  23  28  29  30  31  32 0
 6-311+G(2d,p)
 ****
 33  34 0
 6-311+G(2d,p)
 ****
 1  2  14  15  16  17  18  19  20  21  22  24  25  26  27 0
 3-21G
 ****
 35  36  37  38  39  40  41  42  43  44  45 0
 3-21G
 ****


