%nproc=1
%NoSave
%Mem=1900MB
#P OB98/GEN NMR

erre ene a

0 1
  C      474.725     586.916     441.281
  O      474.632     587.644     440.071
  H      475.325     587.474     442.009
  H      473.723     586.770     441.688
  H      475.180     585.936     441.100
  P      476.012     587.992     439.329
  C      477.815     589.841     439.669
  O      476.656     589.196     440.178
  C      477.539     591.334     439.521
  O      476.608     591.559     438.423
  C      476.889     591.967     440.746
  O      477.832     592.292     441.751
  C      476.265     593.210     440.124
  O      477.291     594.198     439.909
  C      475.737     592.665     438.791
  N      470.816     594.003     438.341
  C      471.954     594.697     438.160
  N      473.236     594.276     438.281
  C      473.254     592.965     438.618
  C      472.179     592.130     438.827
  C      470.908     592.699     438.687
  N      469.737     591.998     438.900
  N      472.606     590.864     439.180
  C      473.922     590.935     439.153
  N      474.377     592.189     438.847
  O      475.541     588.717     437.979
  O      476.929     586.849     439.081
  H      476.915     594.882     439.317
  H      476.283     588.774     437.346
  H      471.841     595.747     437.878
  H      474.603     590.102     439.359
  H      475.801     593.419     437.980
  H      475.513     593.672     440.777
  H      476.079     591.334     441.140
  H      478.479     591.843     439.268
  H      478.053     589.412     438.690
  H      468.878     592.525     438.918
  H      469.788     591.070     439.295
  H      478.651     589.687     440.353
  P      477.262     592.777     443.172
  C      477.664     594.995     444.499
  O      477.452     594.380     443.221
  O      478.355     592.238     444.206
  O      475.890     592.282     443.492
  H      477.949     592.007     445.055
  H      477.772     596.052     444.373
  H      478.552     594.597     444.944
  H      476.826     594.795     445.134

 6  7  8  9  10  11  12  13  14  15  25  28  32  33  34  35 0
 6-311+G(2d,p)
 ****
 36  39  40 0
 6-311+G(2d,p)
 ****
 1  2  3  4  5  16  17  18  19  20  21  22  23  24 0
 3-21G
 ****
 26  27  29  30  31  37  38  41  42  43  44  45  46  47 0
 3-21G
 ****
 48 0
 3-21G
 ****


