%nproc=1
%NoSave
%Mem=1900MB
#P OB98/GEN NMR

erre ene a

0 1
  C     -920.941     342.169     346.120
  O     -919.827     341.724     345.365
  P     -919.639     340.138     345.171
  C     -921.518     339.691     343.421
  O     -921.066     339.538     344.759
  C     -921.529     338.326     342.720
  O     -922.190     337.348     343.540
  C     -922.287     338.337     341.395
  O     -921.501     338.892     340.345
  C     -922.583     336.849     341.205
  O     -921.458     336.169     340.629
  C     -922.812     336.388     342.660
  N     -924.229     336.190     342.977
  C     -924.605     334.915     343.344
  O     -923.804     333.969     343.396
  N     -925.932     334.724     343.622
  C     -926.918     335.670     343.506
  O     -928.097     335.424     343.715
  C     -926.469     337.001     343.079
  C     -925.167     337.202     342.822
  O     -919.417     339.599     346.667
  O     -918.516     339.754     344.279
  H     -920.707     336.325     341.235
  H     -918.783     338.860     346.659
  H     -926.221     333.811     343.917
  H     -927.222     337.774     342.976
  H     -924.817     338.172     342.499
  H     -922.294     335.440     342.836
  H     -923.441     336.685     340.549
  H     -923.236     338.883     341.507
  H     -920.491     338.012     342.574
  H     -920.846     340.370     342.888
  H     -922.519     340.132     343.426
  P     -922.288     339.667     339.182
  C     -921.948     341.873     340.544
  O     -922.833     341.009     339.864
  O     -923.571     338.721     339.018
  O     -921.466     339.841     337.946
  H     -923.839     338.315     339.863
  H     -920.967     341.900     340.063
  H     -921.829     341.527     341.585
  H     -922.372     342.875     340.537
  H     -920.937     343.238     346.165
  H     -920.882     341.770     347.111
  H     -921.844     341.835     345.654

 3  4  5  6  7  8  9  10  11  12  13  23  28  29  30  31  32 0
 6-311+G(2d,p)
 ****
 33  34 0
 6-311+G(2d,p)
 ****
 1  2  14  15  16  17  18  19  20  21  22  24  25  26 0
 3-21G
 ****
 27  35  36  37  38  39  40  41  42  43  44  45 0
 3-21G
 ****


