%nproc=1
%NoSave
%Mem=1900MB
#P OB98/GEN NMR

erre ene a

0 1
  C      -99.200     -29.240      54.755
  O      -98.129     -28.832      53.928
  H     -100.130     -29.168      54.186
  H      -99.273     -28.588      55.629
  H      -99.058     -30.276      55.072
  P      -96.670     -28.807      54.593
  C      -96.137     -31.330      54.284
  O      -96.412     -30.271      55.192
  C      -94.775     -31.936      54.604
  O      -93.729     -30.984      54.299
  C      -94.583     -32.294      56.071
  O      -95.221     -33.509      56.416
  C      -93.067     -32.382      56.148
  O      -92.592     -33.670      55.723
  C      -92.618     -31.275      55.169
  N      -92.142     -30.085      55.866
  C      -90.763     -30.000      56.039
  O      -89.979     -30.861      55.640
  N      -90.314     -28.905      56.725
  C      -91.094     -27.930      57.274
  O      -90.633     -27.012      57.941
  C      -92.543     -28.065      57.045
  C      -92.994     -29.126      56.371
  O      -96.880     -27.895      55.892
  O      -95.583     -28.291      53.711
  H      -96.524     -27.002      55.731
  H      -92.964     -34.318      56.353
  H      -89.320     -28.831      56.871
  H      -93.191     -27.305      57.463
  H      -94.059     -29.257      56.209
  H      -91.805     -31.641      54.529
  H      -92.709     -32.234      57.166
  H      -94.921     -31.469      56.709
  H      -94.630     -32.821      53.967
  H      -96.124     -30.941      53.262
  H      -96.928     -32.083      54.365
  P      -96.098     -33.558      57.758
  C      -98.435     -33.962      56.629
  O      -97.580     -33.097      57.353
  O      -95.506     -32.309      58.560
  O      -96.021     -34.862      58.476
  H      -95.261     -31.566      57.981
  H      -99.372     -33.475      56.457
  H      -98.596     -34.858      57.192
  H      -97.983     -34.207      55.691

 6  7  8  9  10  11  12  13  14  15  16  27  31  32  33  34  35 0
 6-311+G(2d,p)
 ****
 36  37 0
 6-311+G(2d,p)
 ****
 1  2  3  4  5  17  18  19  20  21  22  23  24  25 0
 3-21G
 ****
 26  28  29  30  38  39  40  41  42  43  44  45 0
 3-21G
 ****


