%nproc=1
%NoSave
%Mem=1900MB
#P OB98/GEN NMR

erre ene a

0 1
  C      170.115     192.428     157.729
  O      170.906     193.077     156.753
  H      169.287     193.090     158.016
  H      170.720     192.216     158.614
  H      169.697     191.499     157.331
  P      172.050     192.197     156.047
  C      170.386     190.854     154.572
  O      171.358     190.816     155.616
  C      171.074     191.027     153.214
  O      171.964     189.908     152.959
  C      170.117     191.085     152.030
  O      169.582     192.396     151.852
  C      171.061     190.718     150.892
  O      171.882     191.860     150.556
  C      171.912     189.617     151.536
  N      172.597     185.201     149.143
  C      173.340     186.367     149.084
  N      174.414     186.359     148.256
  N      173.058     187.446     149.763
  C      171.951     187.313     150.536
  C      171.138     186.214     150.687
  C      171.472     185.019     149.933
  O      170.862     183.952     149.968
  N      170.114     186.458     151.567
  C      170.301     187.707     151.936
  N      171.392     188.273     151.334
  O      172.991     191.761     157.273
  O      172.828     192.890     154.985
  H      172.653     191.525     150.066
  H      173.920     191.746     156.967
  H      172.860     184.394     148.590
  H      169.672     188.239     152.636
  H      172.945     189.620     151.161
  H      170.529     190.430     149.986
  H      174.657     185.574     147.676
  H      169.327     190.329     152.107
  H      174.985     187.192     148.218
  H      171.697     191.928     153.266
  H      169.714     191.697     154.738
  H      169.810     189.921     154.586
  P      167.984     192.557     151.918
  C      168.025     193.196     154.434
  O      167.579     192.274     153.440
  O      167.461     191.247     151.147
  O      167.454     193.817     151.317
  H      166.559     191.407     150.804
  H      167.680     192.878     155.396
  H      167.635     194.169     154.219
  H      169.094     193.232     154.433

 6  7  8  9  10  11  12  13  14  15  26  29  33  34 0
 6-311+G(2d,p)
 ****
 36  38  39  40  41 0
 6-311+G(2d,p)
 ****
 1  2  3  4  5  16  17  18  19  20  21  22  23  24  25 0
 3-21G
 ****
 27  28  30  31  32  35  37  42  43  44  45  46  47 0
 3-21G
 ****
 48  49 0
 3-21G
 ****


