%nproc=1
%NoSave
%Mem=1900MB
#P OB98/GEN NMR

erre ene a

0 1
  C      -52.001     100.013     -56.737
  O      -53.337      99.755     -56.291
  P      -53.531      98.882     -54.962
  C      -54.159     100.897     -53.443
  O      -54.557      99.655     -54.004
  C      -55.301     101.913     -53.539
  O      -55.347     102.544     -54.839
  C      -56.680     101.305     -53.324
  O      -56.988     101.174     -51.942
  C      -57.570     102.365     -53.953
  O      -57.756     103.458     -53.031
  C      -56.735     102.816     -55.157
  N      -60.012     102.700     -59.008
  C      -59.937     103.557     -57.928
  N      -60.871     104.532     -57.869
  N      -59.032     103.467     -56.990
  C      -58.154     102.456     -57.189
  C      -58.124     101.542     -58.216
  C      -59.141     101.642     -59.239
  O      -59.263     100.903     -60.210
  N      -57.086     100.660     -58.069
  C      -56.475     101.051     -56.968
  N      -57.096     102.128     -56.386
  O      -52.132      99.069     -54.206
  O      -53.835      97.442     -55.212
  H      -58.361     104.089     -53.465
  H      -51.951      98.291     -53.647
  H      -60.733     102.811     -59.698
  H      -55.587     100.592     -56.554
  H      -56.824     103.891     -55.351
  H      -58.566     101.984     -54.195
  H      -61.565     104.689     -58.582
  H      -56.785     100.355     -53.863
  H      -60.813     105.190     -57.102
  H      -55.130     102.690     -52.783
  H      -53.276     101.283     -53.959
  H      -53.852     100.737     -52.406
  P      -58.348     100.422     -51.546
  C      -57.287      98.614     -50.016
  O      -58.091      99.773     -50.107
  O      -58.363      99.170     -52.542
  O      -59.580     101.250     -51.680
  H      -59.282      98.930     -52.762
  H      -57.089      98.410     -48.962
  H      -56.335      98.761     -50.530
  H      -57.813      97.758     -50.447
  H      -52.030     100.603     -57.629
  H      -51.507      99.086     -56.939
  H      -51.467     100.543     -55.976

 3  4  5  6  7  8  9  10  11  12  23  26  30  31 0
 6-311+G(2d,p)
 ****
 33  35  36  37  38 0
 6-311+G(2d,p)
 ****
 1  2  13  14  15  16  17  18  19  20  21  22  24  25 0
 3-21G
 ****
 27  28  29  32  34  39  40  41  42  43  44  45  46  47  48  49 0
 3-21G
 ****


