%nproc=1
%NoSave
%Mem=1900MB
#P OB98/GEN NMR

erre ene a

0 1
  C     -231.758     324.524     110.641
  O     -231.970     325.710     109.906
  H     -231.494     324.789     111.668
  H     -230.930     323.960     110.198
  H     -232.655     323.902     110.658
  P     -232.709     325.618     108.488
  C     -230.476     325.519     107.197
  O     -231.708     324.874     107.480
  C     -229.855     324.986     105.900
  O     -229.368     323.638     106.114
  C     -230.910     324.902     104.796
  O     -230.343     325.057     103.494
  C     -231.448     323.485     104.942
  O     -232.068     322.997     103.759
  C     -230.170     322.735     105.334
  N     -231.566     317.830     105.209
  C     -231.561     318.764     104.191
  N     -232.008     318.342     102.988
  N     -231.174     320.006     104.346
  C     -230.823     320.306     105.623
  C     -230.807     319.474     106.721
  C     -231.209     318.092     106.526
  O     -231.245     317.228     107.398
  N     -230.412     320.142     107.852
  C     -230.194     321.377     107.444
  N     -230.413     321.527     106.090
  O     -232.683     327.128     107.947
  O     -234.102     325.069     108.516
  H     -231.366     322.850     103.097
  H     -233.411     327.276     107.315
  H     -231.862     316.886     105.035
  H     -229.872     322.198     108.073
  H     -229.598     322.455     104.443
  H     -232.201     323.483     105.734
  H     -232.480     317.461     102.864
  H     -231.704     325.647     104.928
  H     -232.290     319.072     102.319
  H     -228.990     325.597     105.613
  H     -229.805     325.322     108.041
  H     -230.619     326.602     107.141
  P     -230.571     326.457     102.750
  C     -232.256     325.486     100.990
  O     -232.007     326.409     102.033
  O     -229.523     326.414     101.539
  O     -230.361     327.648     103.629
  H     -228.763     326.993     101.731
  H     -233.261     325.604     100.641
  H     -232.121     324.490     101.356
  H     -231.575     325.666     100.184

 6  7  8  9  10  11  12  13  14  15  26  29  33  34 0
 6-311+G(2d,p)
 ****
 36  38  39  40  41 0
 6-311+G(2d,p)
 ****
 1  2  3  4  5  16  17  18  19  20  21  22  23  24  25 0
 3-21G
 ****
 27  28  30  31  32  35  37  42  43  44  45  46  47 0
 3-21G
 ****
 48  49 0
 3-21G
 ****


