%nproc=1
%NoSave
%Mem=1900MB
#P OB98/GEN NMR

erre ene a

0 1
  C     -211.106    -319.863     310.774
  O     -211.797    -318.635     310.725
  H     -210.038    -319.696     310.952
  H     -211.511    -320.466     311.592
  H     -211.243    -320.408     309.833
  P     -211.273    -317.563     309.652
  C     -213.612    -316.730     308.907
  O     -212.394    -316.416     309.568
  C     -214.700    -315.743     309.311
  O     -215.182    -316.042     310.639
  C     -214.252    -314.288     309.369
  O     -214.189    -313.696     308.076
  C     -215.369    -313.681     310.209
  O     -216.517    -313.429     309.378
  C     -215.679    -314.805     311.208
  N     -215.517    -311.866     315.421
  C     -216.252    -311.774     314.287
  N     -216.233    -312.583     313.204
  C     -215.357    -313.589     313.376
  C     -214.547    -313.815     314.477
  C     -214.638    -312.891     315.533
  N     -213.880    -312.984     316.680
  N     -213.786    -314.946     314.303
  C     -214.130    -315.405     313.116
  N     -215.073    -314.615     312.514
  O     -211.421    -318.331     308.254
  O     -209.878    -317.076     309.862
  H     -216.213    -312.857     308.647
  H     -210.686    -318.070     307.666
  H     -216.942    -310.939     314.236
  H     -213.732    -316.309     312.660
  H     -216.762    -314.929     311.346
  H     -215.087    -312.732     310.679
  H     -213.300    -314.185     309.904
  H     -215.543    -315.863     308.614
  H     -213.926    -317.743     309.187
  H     -214.134    -312.416     317.473
  H     -213.232    -313.761     316.758
  H     -213.451    -316.695     307.825
  P     -213.048    -312.594     307.825
  C     -213.210    -312.608     305.231
  O     -213.441    -311.889     306.437
  O     -211.764    -313.472     307.441
  O     -212.777    -311.689     308.974
  H     -210.950    -312.979     307.650
  H     -213.519    -312.014     304.397
  H     -213.770    -313.520     305.247
  H     -212.167    -312.831     305.143

 6  7  8  9  10  11  12  13  14  15  25  28  32  33  34  35 0
 6-311+G(2d,p)
 ****
 36  39  40 0
 6-311+G(2d,p)
 ****
 1  2  3  4  5  16  17  18  19  20  21  22  23  24 0
 3-21G
 ****
 26  27  29  30  31  37  38  41  42  43  44  45  46  47  48 0
 3-21G
 ****


