%nproc=1
%NoSave
%Mem=1900MB
#P OB98/GEN NMR

erre ene a

0 1
  C       11.007     115.344      12.058
  O       12.227     115.310      11.348
  P       13.396     114.270      11.665
  C       14.526     113.445      13.854
  O       13.901     114.525      13.172
  C       14.275     113.468      15.369
  O       12.860     113.360      15.624
  C       14.929     112.251      16.031
  O       16.299     112.277      16.373
  C       13.991     111.870      17.171
  O       14.426     112.377      18.433
  C       12.660     112.513      16.766
  N        9.242     109.268      18.634
  C        9.926     110.280      19.281
  N        9.818     110.299      20.628
  N       10.658     111.168      18.662
  C       10.746     110.961      17.326
  C       10.106     110.003      16.574
  C        9.267     109.053      17.265
  O        8.713     108.090      16.740
  N       10.489     110.048      15.259
  C       11.391     111.006      15.218
  N       11.610     111.563      16.457
  O       14.417     114.058      10.594
  O       12.564     112.894      11.816
  H       15.227     111.885      18.694
  H       13.128     112.172      11.477
  H        8.757     108.562      19.174
  H       11.938     111.312      14.333
  H       12.283     113.156      17.570
  H       13.935     110.781      17.280
  H        9.383     109.549      21.145
  H       14.850     111.423      15.317
  H       10.435     110.917      21.142
  H       14.581     114.422      15.803
  H       15.598     113.495      13.640
  H       14.164     112.495      13.447
  P       17.188     111.027      16.830
  C       16.557     109.233      18.539
  O       16.754     110.617      18.317
  O       18.652     111.641      17.045
  O       17.236     109.898      15.855
  H       19.319     110.931      16.980
  H       15.985     109.098      19.461
  H       17.526     108.738      18.649
  H       16.007     108.776      17.710
  H       10.387     116.123      11.665
  H       11.202     115.532      13.093
  H       10.507     114.404      11.954

 3  4  5  6  7  8  9  10  11  12  23  26  30  31 0
 6-311+G(2d,p)
 ****
 33  35  36  37  38 0
 6-311+G(2d,p)
 ****
 1  2  13  14  15  16  17  18  19  20  21  22  24  25 0
 3-21G
 ****
 27  28  29  32  34  39  40  41  42  43  44  45  46  47  48  49 0
 3-21G
 ****


