%nproc=1
%NoSave
%Mem=1900MB
#P OB98/GEN NMR

erre ene a

0 1
  C     -890.420     222.761    -899.240
  O     -891.540     221.947    -898.960
  H     -889.610     222.126    -899.610
  H     -890.090     223.253    -898.310
  H     -890.650     223.510    -900.000
  P     -892.960     222.647    -898.710
  C     -892.250     222.909    -896.250
  O     -892.830     223.532    -897.380
  C     -892.290     223.841    -895.030
  O     -893.680     224.245    -894.790
  C     -891.810     223.149    -893.750
  O     -891.240     224.068    -892.820
  C     -893.080     222.568    -893.180
  O     -893.010     222.320    -891.770
  C     -894.100     223.654    -893.540
  N     -898.990     224.192    -892.220
  C     -897.880     224.815    -891.690
  N     -898.090     225.679    -890.680
  N     -896.660     224.573    -892.100
  C     -896.590     223.630    -893.060
  C     -897.630     222.911    -893.640
  C     -898.970     223.223    -893.210
  O     -900.000     222.701    -893.630
  N     -897.170     222.009    -894.580
  C     -895.860     222.181    -894.570
  N     -895.470     223.158    -893.680
  O     -893.900     221.423    -898.220
  O     -893.560     223.350    -899.900
  H     -892.270     221.748    -891.590
  H     -894.840     221.644    -898.380
  H     -899.910     224.434    -891.870
  H     -895.150     221.612    -895.180
  H     -894.120     224.446    -892.790
  H     -893.270     221.615    -893.660
  H     -899.000     225.752    -890.200
  H     -891.090     222.367    -893.960
  H     -897.270     225.901    -890.080
  H     -891.730     224.769    -895.250
  H     -891.230     222.652    -896.500
  H     -892.760     221.967    -896.010
  P     -889.640     224.212    -892.760
  C     -889.070     221.763    -891.940
  O     -888.950     222.763    -892.900
  O     -889.350     224.624    -891.220
  O     -889.080     225.232    -893.710
  H     -888.980     225.514    -891.180
  H     -888.526     220.898    -892.257
  H     -890.102     221.510    -891.816
  H     -888.674     222.112    -891.010

 6  7  8  9  10  11  12  13  14  15  26  29  33  34 0
 6-311+G(2d,p)
 ****
 36  38  39  40  41 0
 6-311+G(2d,p)
 ****
 1  2  3  4  5  16  17  18  19  20  21  22  23  24  25 0
 3-21G
 ****
 27  28  30  31  32  35  37  42  43  44  45  46  47 0
 3-21G
 ****
 48  49 0
 3-21G
 ****


