%nproc=1
%NoSave
%Mem=1900MB
#P OB98/GEN NMR

erre ene a

0 1
  C      351.609    -488.031     133.597
  O      351.094    -489.278     134.025
  H      350.942    -487.240     133.955
  H      351.645    -487.990     132.507
  H      352.607    -487.860     134.010
  P      351.963    -490.600     133.768
  C      351.975    -491.903     135.994
  O      351.364    -491.746     134.719
  C      351.338    -493.090     136.726
  O      350.042    -492.715     137.243
  C      351.095    -494.303     135.837
  O      352.300    -495.006     135.591
  C      350.072    -495.063     136.664
  O      350.707    -495.815     137.712
  C      349.217    -493.912     137.243
  N      347.976    -493.697     136.510
  C      346.827    -494.279     137.053
  O      346.838    -494.974     138.068
  N      345.668    -494.064     136.357
  C      345.566    -493.430     135.150
  O      344.513    -493.339     134.524
  C      346.802    -492.861     134.617
  C      347.938    -493.012     135.310
  O      353.442    -490.430     133.840
  O      351.500    -491.072     132.305
  H      349.988    -496.270     138.200
  H      352.198    -490.859     131.662
  H      344.834    -494.490     136.722
  H      346.756    -492.338     133.669
  H      348.864    -492.602     134.932
  H      348.974    -494.118     138.297
  H      349.499    -495.767     136.066
  H      350.631    -493.990     134.897
  H      351.985    -493.352     137.577
  H      351.815    -490.988     136.577
  H      353.049    -492.063     135.857
  P      352.374    -496.074     134.397
  C      354.690    -495.384     133.515
  O      353.916    -496.411     134.137
  O      351.586    -495.716     133.175
  O      351.819    -497.419     135.063
  H      351.018    -497.713     134.584
  H      355.698    -495.721     133.393
  H      354.679    -494.508     134.129
  H      354.273    -495.154     132.557

 6  7  8  9  10  11  12  13  14  15  16  26  31  32  33  34  35 0
 6-311+G(2d,p)
 ****
 36  37 0
 6-311+G(2d,p)
 ****
 1  2  3  4  5  17  18  19  20  21  22  23  24  25 0
 3-21G
 ****
 27  28  29  30  38  39  40  41  42  43  44  45 0
 3-21G
 ****


