%nproc=1
%NoSave
%Mem=1900MB
#P OB98/GEN NMR

erre ene a

0 1
  C      116.881    -893.770     586.691
  O      116.049    -894.780     586.093
  P      115.597    -894.580     584.568
  C      113.142    -893.750     584.882
  O      114.015    -894.810     584.480
  C      111.694    -894.240     584.928
  O      111.219    -894.670     583.628
  C      111.482    -895.450     585.863
  O      111.353    -895.050     587.226
  C      110.158    -896.000     585.348
  O      109.081    -895.230     585.882
  C      110.289    -895.770     583.835
  N      110.544    -898.090     579.336
  C      109.964    -896.880     579.697
  N      109.348    -896.200     578.706
  N      109.966    -896.410     580.895
  C      110.617    -897.190     581.797
  C      111.235    -898.410     581.566
  C      111.220    -898.940     580.222
  O      111.701    -900.000     579.852
  N      111.792    -898.910     582.733
  C      111.528    -898.000     583.649
  N      110.782    -896.950     583.135
  O      116.191    -895.900     583.839
  O      116.113    -893.330     583.930
  H      108.256    -895.750     585.722
  H      116.373    -895.720     582.918
  H      110.510    -898.410     578.391
  H      111.826    -898.060     584.680
  H      109.348    -895.490     583.374
  H      109.999    -897.040     585.652
  H      109.368    -896.490     577.729
  H      112.291    -896.200     585.730
  H      108.950    -895.300     578.936
  H      111.072    -893.420     585.291
  H      113.220    -892.910     584.178
  H      113.472    -893.370     585.858
  P      112.679    -895.010     588.134
  C      112.914    -897.590     588.166
  O      112.718    -896.410     588.914
  O      112.278    -893.930     589.267
  O      113.915    -894.610     587.410
  H      113.070    -893.480     589.570
  H      113.080    -898.430     588.861
  H      113.777    -897.500     587.505
  H      112.014    -897.820     587.566
  H      117.098    -894.040     587.703
  H      116.369    -892.831     586.675
  H      117.794    -893.688     586.140

 3  4  5  6  7  8  9  10  11  12  23  26  30  31 0
 6-311+G(2d,p)
 ****
 33  35  36  37  38 0
 6-311+G(2d,p)
 ****
 1  2  13  14  15  16  17  18  19  20  21  22  24  25 0
 3-21G
 ****
 27  28  29  32  34  39  40  41  42  43  44  45  46  47  48  49 0
 3-21G
 ****


