%nproc=1
%NoSave
%Mem=1900MB
#P OB98/GEN NMR

erre ene a

0 1
  C       51.891     180.607      18.656
  O       51.424     181.050      19.932
  P       49.853     181.243      20.208
  C       48.270     183.237      20.486
  O       49.435     182.749      19.831
  C       47.857     184.645      20.037
  O       48.685     185.655      20.670
  C       47.928     184.888      18.528
  O       46.866     185.801      18.225
  C       49.282     185.559      18.369
  O       49.406     186.260      17.139
  C       49.324     186.424      19.634
  N       50.687     186.803      20.003
  C       51.116     188.075      19.617
  O       50.381     188.804      18.948
  N       52.387     188.477      19.956
  C       53.189     187.641      20.541
  N       54.443     188.086      20.827
  C       52.806     186.257      20.889
  C       51.551     185.915      20.602
  O       49.394     180.791      21.556
  O       49.153     180.370      19.056
  H       50.353     186.274      16.885
  H       48.298     180.032      19.384
  H       53.520     185.587      21.352
  H       51.170     184.923      20.823
  H       48.739     187.343      19.494
  H       50.074     184.799      18.400
  H       47.837     183.973      17.936
  H       46.832     184.814      20.392
  H       54.672     189.035      20.551
  H       48.456     183.243      21.568
  H       55.178     187.487      21.176
  H       47.443     182.536      20.308
  P       45.666     185.412      17.242
  C       45.479     185.071      14.710
  O       46.162     185.745      15.754
  O       44.342     186.006      17.602
  O       45.613     183.810      17.265
  H       44.748     183.511      16.925
  H       45.752     185.525      13.754
  H       44.391     185.148      14.843
  H       45.772     184.016      14.697
  H       52.959     180.541      18.670
  H       51.587     181.304      17.903
  H       51.477     179.644      18.439

 3  4  5  6  7  8  9  10  11  12  13  23  27  28  29  30  32 0
 6-311+G(2d,p)
 ****
 34  35 0
 6-311+G(2d,p)
 ****
 1  2  14  15  16  17  18  19  20  21  22  24  25  26 0
 3-21G
 ****
 31  33  36  37  38  39  40  41  42  43  44  45  46 0
 3-21G
 ****


