%nproc=1
%NoSave
%Mem=1900MB
#P OB98/GEN NMR

erre ene a

0 1
  C     1212.274     827.062    -432.219
  O     1213.383     826.376    -432.770
  P     1213.551     826.189    -434.353
  C     1213.076     824.225    -435.963
  O     1212.753     824.865    -434.715
  C     1213.124     822.708    -435.832
  O     1214.313     822.362    -435.023
  C     1211.907     822.046    -435.174
  O     1211.779     820.772    -435.811
  C     1212.366     821.913    -433.749
  O     1211.589     820.921    -433.027
  C     1213.832     821.537    -433.905
  N     1214.612     821.782    -432.697
  C     1215.019     820.638    -431.998
  O     1214.697     819.516    -432.374
  N     1215.789     820.805    -430.848
  C     1216.024     821.996    -430.417
  N     1216.802     822.107    -429.310
  C     1215.508     823.206    -431.050
  C     1214.816     823.047    -432.198
  O     1214.958     826.256    -434.844
  O     1212.604     827.334    -434.967
  H     1211.767     820.042    -433.417
  H     1213.057     828.219    -434.906
  H     1215.690     824.199    -430.619
  H     1214.389     823.872    -432.750
  H     1213.968     820.488    -434.217
  H     1212.244     822.854    -433.215
  H     1211.005     822.642    -435.307
  H     1213.316     822.282    -436.832
  H     1217.155     821.226    -428.913
  H     1214.033     824.615    -436.313
  H     1217.110     822.990    -428.911
  H     1212.308     824.534    -436.720
  P     1210.325     820.201    -436.217
  C     1208.205     819.516    -434.995
  O     1209.486     820.081    -434.851
  O     1210.353     818.965    -437.061
  O     1209.600     821.438    -436.987
  H     1208.825     821.091    -437.474
  H     1207.831     819.228    -433.952
  H     1208.211     818.615    -435.598
  H     1207.485     820.225    -435.424
  H     1212.356     827.073    -431.152
  H     1211.370     826.565    -432.503
  H     1212.258     828.067    -432.586

 3  4  5  6  7  8  9  10  11  12  13  23  27  28  29  30  32 0
 6-311+G(2d,p)
 ****
 34  35 0
 6-311+G(2d,p)
 ****
 1  2  14  15  16  17  18  19  20  21  22  24  25  26 0
 3-21G
 ****
 31  33  36  37  38  39  40  41  42  43  44  45  46 0
 3-21G
 ****


