%nproc=1
%NoSave
%Mem=1900MB
#P OB98/GEN NMR

erre ene a

0 1
  C     -124.126     -44.402     -35.879
  O     -123.950     -45.805     -35.690
  P     -125.122     -46.828     -35.333
  C     -126.098     -47.835     -33.119
  O     -125.313     -46.831     -33.745
  C     -125.873     -47.917     -31.599
  O     -124.563     -48.484     -31.335
  C     -125.873     -46.520     -30.980
  O     -127.095     -45.890     -30.646
  C     -124.886     -46.610     -29.824
  O     -125.524     -46.904     -28.580
  C     -123.966     -47.762     -30.238
  N     -119.409     -46.087     -28.630
  C     -120.546     -46.359     -27.897
  N     -120.484     -46.108     -26.571
  N     -121.650     -46.818     -28.419
  C     -121.606     -46.942     -29.765
  C     -120.546     -46.684     -30.602
  C     -119.305     -46.231     -30.007
  O     -118.266     -45.986     -30.609
  N     -120.877     -46.904     -31.915
  C     -122.141     -47.268     -31.874
  N     -122.629     -47.313     -30.588
  O     -125.047     -48.154     -36.009
  O     -126.445     -46.079     -35.875
  H     -125.984     -47.757     -28.674
  H     -127.060     -46.780     -36.171
  H     -118.576     -45.756     -28.173
  H     -122.746     -47.515     -32.739
  H     -123.845     -48.484     -29.421
  H     -124.365     -45.655     -29.687
  H     -119.706     -45.643     -26.130
  H     -125.405     -45.847     -31.710
  H     -121.374     -46.098     -26.070
  H     -126.591     -48.597     -31.135
  H     -125.839     -48.784     -33.596
  H     -127.156     -47.663     -33.324
  P     -127.654     -44.521     -31.259
  C     -127.424     -42.027     -30.721
  O     -127.338     -43.348     -30.218
  O     -129.244     -44.668     -31.148
  O     -127.243     -44.244     -32.667
  H     -129.687     -44.015     -31.719
  H     -126.901     -41.352     -30.038
  H     -128.473     -41.726     -30.783
  H     -126.965     -41.956     -31.712
  H     -123.183     -43.952     -36.108
  H     -124.520     -43.968     -34.984
  H     -124.807     -44.234     -36.687

 3  4  5  6  7  8  9  10  11  12  23  26  30  31 0
 6-311+G(2d,p)
 ****
 33  35  36  37  38 0
 6-311+G(2d,p)
 ****
 1  2  13  14  15  16  17  18  19  20  21  22  24  25 0
 3-21G
 ****
 27  28  29  32  34  39  40  41  42  43  44  45  46  47  48  49 0
 3-21G
 ****


