%nproc=1
%NoSave
%Mem=1900MB
#P OB98/GEN NMR

erre ene a

0 1
  C     -400.263      22.959     564.823
  O     -399.039      22.267     564.980
  H     -400.696      23.135     565.810
  H     -400.962      22.357     564.232
  H     -400.095      23.920     564.333
  P     -398.236      21.927     563.632
  C     -397.551      19.415     563.775
  O     -398.503      20.371     563.336
  C     -397.852      18.041     563.159
  O     -399.102      17.539     563.722
  C     -398.031      18.071     561.632
  O     -397.635      16.790     561.114
  C     -399.542      18.230     561.502
  O     -399.971      17.961     560.187
  C     -399.989      17.279     562.609
  N     -404.838      17.502     561.003
  C     -403.686      17.232     560.351
  N     -402.437      17.177     560.848
  C     -402.436      17.420     562.169
  C     -403.534      17.701     562.972
  C     -404.784      17.748     562.336
  N     -405.956      18.031     562.997
  N     -403.140      17.902     564.287
  C     -401.829      17.736     564.273
  N     -401.361      17.455     563.018
  O     -396.705      21.967     564.098
  O     -398.494      22.841     562.479
  H     -400.945      18.040     560.113
  H     -396.325      22.847     563.909
  H     -403.789      17.030     559.284
  H     -401.175      17.820     565.134
  H     -399.861      16.228     562.319
  H     -399.847      19.254     561.723
  H     -397.455      18.857     561.140
  H     -397.064      17.337     563.455
  H     -397.603      19.349     564.870
  H     -396.547      19.733     563.482
  H     -406.812      18.056     562.461
  H     -405.928      18.231     563.983
  P     -396.185      16.634     560.444
  C     -396.646      16.842     557.875
  O     -396.168      17.453     559.061
  O     -396.219      15.116     559.920
  O     -395.019      16.853     561.353
  H     -395.314      14.756     559.899
  H     -396.559      17.529     557.060
  H     -397.673      16.569     558.003
  H     -396.067      15.967     557.667

 6  7  8  9  10  11  12  13  14  15  25  28  32  33  34  35 0
 6-311+G(2d,p)
 ****
 36  37  40 0
 6-311+G(2d,p)
 ****
 1  2  3  4  5  16  17  18  19  20  21  22  23  24 0
 3-21G
 ****
 26  27  29  30  31  38  39 41  42  43  44  45  46  47  48 0
 3-21G
 ****


