%nproc=1
%NoSave
%Mem=1900MB
#P OB98/GEN NMR

erre ene a

0 1
  C      216.399    -241.047      -4.381
  O      215.739    -242.313      -4.321
  P      214.934    -242.664      -2.979
  C      216.721    -244.286      -1.995
  O      215.992    -243.072      -1.846
  C      217.558    -244.558      -0.742
  O      216.750    -244.484       0.447
  C      218.172    -245.947      -0.724
  O      219.312    -245.998      -1.561
  C      218.488    -246.132       0.757
  O      219.806    -245.660       1.086
  C      217.407    -245.273       1.457
  N      216.453    -246.069       2.210
  C      216.749    -246.253       3.567
  O      217.772    -245.771       4.050
  N      215.887    -246.994       4.328
  C      214.837    -247.533       3.780
  N      214.021    -248.265       4.584
  C      214.510    -247.388       2.347
  C      215.354    -246.653       1.626
  O      214.218    -244.051      -3.329
  O      213.947    -241.616      -2.571
  H      219.994    -246.010       1.980
  H      213.356    -244.113      -2.873
  H      213.629    -247.862       1.933
  H      215.192    -246.493       0.564
  H      217.878    -244.560       2.149
  H      218.453    -247.188       1.044
  H      217.432    -246.690      -1.039
  H      218.346    -243.796      -0.677
  H      214.278    -248.344       5.561
  H      217.375    -244.225      -2.870
  H      213.182    -248.733       4.260
  H      216.016    -245.104      -2.183
  P      219.117    -246.535      -3.056
  C      220.344    -248.738      -2.566
  O      219.113    -248.134      -2.929
  O      220.554    -246.255      -3.706
  O      218.013    -245.933      -3.858
  H      220.534    -246.457      -4.660
  H      220.159    -249.782      -2.314
  H      220.774    -248.235      -1.693
  H      221.041    -248.692      -3.406
  H      216.892    -240.946      -5.325
  H      217.120    -240.983      -3.593
  H      215.679    -240.264      -4.270

 3  4  5  6  7  8  9  10  11  12  13  21  23  27  28  29  30  32 0
 6-311+G(2d,p)
 ****
 34  35 0
 6-311+G(2d,p)
 ****
 1  2  14  15  16  17  18  19  20  22  24  25  26 0
 3-21G
 ****
 31  33  36  37  38  39  40  41  42  43  44  45  46 0
 3-21G
 ****


