%nproc=1
%NoSave
%Mem=1900MB
#P OB98/GEN NMR

erre ene a

0 1
  C      -36.859    -317.526    -447.047
  O      -36.134    -318.710    -447.361
  P      -35.916    -319.059    -448.912
  C      -34.201    -317.133    -449.295
  O      -35.465    -317.692    -449.636
  C      -33.118    -317.591    -450.270
  O      -33.616    -317.430    -451.633
  C      -31.793    -316.817    -450.165
  O      -30.744    -317.741    -450.449
  C      -31.940    -315.797    -451.291
  O      -30.718    -315.189    -451.684
  C      -32.629    -316.656    -452.349
  N      -32.624    -315.549    -457.348
  C      -31.913    -316.443    -456.622
  N      -31.971    -316.688    -455.297
  C      -32.894    -315.902    -454.706
  C      -33.680    -314.938    -455.311
  C      -33.521    -314.769    -456.702
  N      -34.249    -313.856    -457.446
  N      -34.495    -314.309    -454.388
  C      -34.198    -314.890    -453.244
  N      -33.252    -315.864    -453.389
  O      -37.404    -319.286    -449.448
  O      -35.032    -320.241    -449.180
  H      -30.250    -314.828    -450.906
  H      -37.438    -320.017    -450.094
  H      -31.191    -317.041    -457.177
  H      -34.632    -314.625    -452.283
  H      -31.929    -317.356    -452.833
  H      -32.599    -314.991    -450.953
  H      -31.622    -316.369    -449.183
  H      -32.940    -318.669    -450.111
  H      -33.920    -317.456    -448.283
  H      -33.917    -313.675    -458.388
  H      -34.758    -313.144    -456.929
  H      -34.285    -316.034    -449.279
  P      -29.343    -317.590    -449.673
  C      -30.509    -318.827    -447.732
  O      -29.755    -317.694    -448.110
  O      -29.072    -316.023    -449.832
  O      -28.238    -318.471    -450.147
  H      -29.850    -315.495    -449.564
  H      -30.631    -318.817    -446.645
  H      -29.986    -319.748    -448.024
  H      -31.497    -318.789    -448.198
  H      -36.927    -317.420    -445.984
  H      -37.843    -317.590    -447.462
  H      -36.352    -316.678    -447.458

 3  4  5  6  7  8  9  10  11  12  22  25  29  30  31  32 0
 6-311+G(2d,p)
 ****
 33  36  37 0
 6-311+G(2d,p)
 ****
 1  2  13  14  15  16  17  18  19  20  21  23  24  26 0
 3-21G
 ****
 27  28  34  35  38  39  40  41  42  43  44  45  46  47  48 0
 3-21G
 ****


