%nproc=1
%NoSave
%Mem=1900MB
#P OB98/GEN NMR

erre ene a

0 1
  C      360.905    -976.359     -97.736
  O      361.369    -976.740     -96.461
  H      360.435    -977.227     -98.211
  H      361.752    -976.039     -98.357
  H      360.167    -975.555     -97.674
  P      361.675    -975.598     -95.387
  C      360.389    -976.725     -93.440
  O      360.482    -975.588     -94.300
  C      358.933    -977.091     -93.150
  O      358.204    -977.205     -94.380
  C      358.814    -978.437     -92.427
  O      358.912    -978.362     -91.007
  C      357.408    -978.883     -92.862
  O      356.402    -978.391     -91.959
  C      357.255    -978.278     -94.253
  N      355.596    -982.532     -96.534
  C      355.198    -981.995     -95.311
  N      354.299    -982.705     -94.616
  N      355.691    -980.880     -94.825
  C      356.668    -980.345     -95.605
  C      357.127    -980.786     -96.815
  C      356.538    -981.986     -97.380
  O      356.828    -982.485     -98.454
  N      358.154    -979.989     -97.299
  C      358.349    -979.131     -96.328
  N      357.419    -979.240     -95.323
  O      361.406    -974.236     -96.200
  O      363.059    -975.606     -94.808
  H      356.737    -978.489     -91.048
  H      361.987    -973.538     -95.863
  H      355.149    -983.390     -96.854
  H      359.127    -978.364     -96.319
  H      356.248    -977.835     -94.372
  H      357.335    -979.981     -92.840
  H      353.960    -983.623     -94.881
  H      359.533    -979.163     -92.829
  H      354.136    -982.463     -93.634
  H      358.465    -976.292     -92.561
  H      360.905    -976.446     -92.512
  H      360.922    -977.577     -93.878
  P      360.206    -978.899     -90.249
  C      360.794    -976.989     -88.540
  O      361.060    -977.647     -89.772
  O      361.098    -979.520     -91.446
  O      359.955    -979.898     -89.162
  H      360.986    -980.465     -91.486
  H      361.480    -976.178     -88.413
  H      360.909    -977.682     -87.733
  H      359.793    -976.612     -88.546

 6  7  8  9  10  11  12  13  14  15  26  29  33  34 0
 6-311+G(2d,p)
 ****
 36  38  39  40  41 0
 6-311+G(2d,p)
 ****
 1  2  3  4  5  16  17  18  19  20  21  22  23  24  25 0
 3-21G
 ****
 27  28  30  31  32  35  37  42  43  44  45  46  47 0
 3-21G
 ****
 48  49 0
 3-21G
 ****


