%nproc=1
%NoSave
%Mem=1900MB
#P OB98/GEN NMR

erre ene a

0 1
  C      475.737    -545.259    -779.110
  O      475.919    -544.958    -777.752
  P      476.336    -543.483    -777.274
  C      478.659    -544.246    -776.415
  O      477.384    -543.685    -776.072
  C      479.528    -544.412    -775.157
  O      479.892    -543.138    -774.618
  C      478.844    -545.181    -774.035
  O      478.814    -546.571    -774.305
  C      479.703    -544.779    -772.834
  O      480.895    -545.577    -772.768
  C      480.060    -543.299    -773.193
  N      479.258    -542.355    -772.441
  C      479.731    -541.029    -772.394
  O      480.804    -540.739    -772.951
  N      479.015    -540.064    -771.701
  C      477.944    -540.429    -771.078
  N      477.263    -539.453    -770.395
  C      477.397    -541.811    -771.065
  C      478.116    -542.706    -771.755
  O      475.199    -542.555    -776.980
  O      477.290    -542.966    -778.470
  H      481.330    -545.472    -773.646
  H      476.742    -542.730    -779.276
  H      476.504    -542.059    -770.527
  H      477.788    -543.765    -771.808
  H      481.128    -543.103    -772.974
  H      479.154    -544.876    -771.893
  H      477.818    -544.794    -773.907
  H      480.450    -544.943    -775.470
  H      477.688    -538.531    -770.397
  H      479.145    -543.540    -777.092
  H      476.434    -539.623    -769.841
  H      478.503    -545.186    -776.936
  P      477.406    -547.332    -774.439
  C      477.367    -548.165    -771.998
  O      477.408    -548.541    -773.386
  O      477.021    -547.720    -775.830
  O      476.342    -546.297    -773.810
  H      475.567    -546.267    -774.378
  H      477.052    -549.036    -771.414
  H      476.688    -547.335    -771.832
  H      478.394    -547.876    -771.675
  H      475.464    -546.288    -779.214
  H      476.648    -545.077    -779.641
  H      474.961    -544.642    -779.511

 3  4  5  6  7  8  9  10  11  12  13  23  27  28  29  30  32 0
 6-311+G(2d,p)
 ****
 34  35 0
 6-311+G(2d,p)
 ****
 1  2  14  15  16  17  18  19  20  21  22  24  25  26 0
 3-21G
 ****
 31  33  36  37  38  39  40  41  42  43  44  45  46 0
 3-21G
 ****


