%nproc=1
%NoSave
%Mem=1900MB
#P OB98/GEN NMR

erre ene a

0 1
  C      -36.363     120.570    -430.636
  O      -36.053     119.198    -430.618
  P      -34.514     118.709    -430.622
  C      -34.502     118.139    -428.109
  O      -33.950     118.968    -429.138
  C      -33.456     117.112    -427.653
  O      -32.363     117.760    -426.955
  C      -33.980     116.092    -426.665
  O      -34.956     115.183    -427.128
  C      -32.688     115.501    -426.131
  O      -32.153     114.513    -427.013
  C      -31.772     116.754    -426.091
  N      -31.579     117.254    -424.737
  C      -30.560     116.643    -423.998
  O      -29.854     115.744    -424.436
  N      -30.404     117.092    -422.714
  C      -31.183     118.031    -422.095
  O      -31.010     118.354    -420.921
  C      -32.244     118.625    -422.905
  C      -32.402     118.217    -424.169
  O      -33.674     119.289    -431.718
  O      -34.638     117.118    -430.667
  H      -32.784     113.781    -427.050
  H      -35.118     116.721    -429.918
  H      -29.690     116.653    -422.164
  H      -32.865     119.384    -422.448
  H      -33.176     118.639    -424.793
  H      -30.789     116.518    -426.515
  H      -32.827     115.012    -425.154
  H      -34.461     116.636    -425.835
  H      -33.028     116.633    -428.547
  H      -35.377     117.608    -428.504
  H      -34.834     118.762    -427.271
  P      -35.660     114.088    -426.182
  C      -37.774     115.604    -426.008
  O      -36.808     114.820    -425.338
  O      -34.766     113.131    -425.464
  O      -36.538     113.255    -427.257
  H      -36.622     112.333    -426.956
  H      -38.438     116.068    -425.277
  H      -38.364     114.981    -426.688
  H      -37.272     116.406    -426.576
  H      -37.426     120.696    -430.630
  H      -35.956     121.016    -431.519
  H      -35.943     121.042    -429.772

 3  4  5  6  7  8  9  10  11  12  13  23  28  29  30  31  32 0
 6-311+G(2d,p)
 ****
 33  34 0
 6-311+G(2d,p)
 ****
 1  2  14  15  16  17  18  19  20  21  22  24  25  26  27 0
 3-21G
 ****
 35  36  37  38  39  40  41  42  43  44  45 0
 3-21G
 ****


