%nproc=1
%NoSave
%Mem=1900MB
#P OB98/GEN NMR

erre ene a

0 1
  C      654.349     448.793     312.329
  O      655.178     449.512     313.219
  H      654.865     448.702     311.368
  H      653.406     449.322     312.173
  H      654.155     447.789     312.715
  P      654.627     449.844     314.687
  C      655.066     452.373     314.981
  O      654.111     451.364     314.653
  C      654.383     453.744     315.039
  O      654.038     454.122     313.678
  C      653.090     453.729     315.875
  O      653.068     454.736     316.886
  C      651.990     453.757     314.818
  O      650.765     454.313     315.262
  C      652.642     454.501     313.656
  N      652.057     454.196     312.348
  C      650.786     454.709     312.085
  O      650.134     455.416     312.853
  N      650.265     454.382     310.861
  C      650.859     453.613     309.907
  O      650.342     453.360     308.825
  C      652.192     453.084     310.251
  C      652.721     453.396     311.441
  O      655.556     449.520     315.817
  O      653.262     449.005     314.793
  H      650.457     453.792     316.025
  H      653.416     448.203     315.324
  H      649.351     454.754     310.657
  H      652.689     452.460     309.525
  H      653.703     453.030     311.729
  H      652.590     455.583     313.804
  H      651.780     452.724     314.513
  H      653.009     452.798     316.446
  H      655.100     454.482     315.414
  H      655.839     452.359     314.209
  H      655.521     452.143     315.951
  P      653.396     454.482     318.426
  C      651.042     453.642     319.233
  O      652.411     453.352     318.971
  O      653.548     455.707     319.267
  O      654.837     453.747     318.381
  H      655.322     454.024     319.187
  H      650.552     452.760     319.589
  H      650.569     453.973     318.332
  H      650.976     454.411     319.974

 6  7  8  9  10  11  12  13  14  15  16  26  31  32  33  34  35 0
 6-311+G(2d,p)
 ****
 36  37 0
 6-311+G(2d,p)
 ****
 1  2  3  4  5  17  18  19  20  21  22  23  24  25 0
 3-21G
 ****
 27  28  29  30  38  39  40  41  42  43  44  45 0
 3-21G
 ****


