%nproc=1
%NoSave
%Mem=1900MB
#P OB98/GEN NMR

erre ene a

0 1
  C      334.852    -618.156    -580.589
  O      334.325    -616.868    -580.243
  P      335.069    -615.989    -579.117
  C      334.501    -613.642    -580.119
  O      335.497    -614.588    -579.765
  C      335.116    -612.248    -580.273
  O      335.797    -611.862    -579.053
  C      336.178    -612.152    -581.357
  O      335.596    -612.091    -582.660
  C      336.901    -610.873    -580.968
  O      336.194    -609.707    -581.444
  C      336.849    -610.939    -579.421
  N      338.126    -611.327    -578.836
  C      339.122    -610.361    -578.816
  O      338.980    -609.239    -579.311
  N      340.310    -610.731    -578.234
  C      340.610    -611.971    -577.745
  O      341.696    -612.245    -577.252
  C      339.546    -612.981    -577.870
  C      338.382    -612.620    -578.404
  O      336.484    -616.748    -578.991
  O      334.383    -615.920    -577.795
  H      336.559    -608.944    -580.954
  H      336.840    -616.614    -578.092
  H      341.034    -610.029    -578.185
  H      339.753    -613.980    -577.512
  H      337.583    -613.358    -578.505
  H      336.560    -609.968    -579.010
  H      337.914    -610.820    -581.376
  H      336.874    -612.996    -581.286
  H      334.306    -611.535    -580.451
  H      333.739    -613.607    -579.328
  H      334.019    -613.956    -581.051
  P      336.523    -612.563    -583.882
  C      335.222    -614.737    -584.559
  O      336.365    -614.158    -583.948
  O      337.983    -612.308    -583.273
  O      336.244    -611.820    -585.144
  H      338.015    -612.468    -582.309
  H      334.875    -614.133    -585.391
  H      334.433    -614.837    -583.815
  H      335.503    -615.724    -584.929
  H      334.241    -618.599    -581.347
  H      334.857    -618.784    -579.723
  H      335.851    -618.046    -580.955

 3  4  5  6  7  8  9  10  11  12  13  23  28  29  30  31  32 0
 6-311+G(2d,p)
 ****
 33  34 0
 6-311+G(2d,p)
 ****
 1  2  14  15  16  17  18  19  20  21  22  24  25  26 0
 3-21G
 ****
 27  35  36  37  38  39  40  41  42  43  44  45 0
 3-21G
 ****


