%nproc=1
%NoSave
%Mem=1900MB
#P OB98/GEN NMR

erre ene a

0 1
  C     -182.916    -120.261     -18.060
  O     -181.909    -119.254     -18.006
  P     -181.470    -118.562     -19.385
  C     -179.880    -120.415     -20.342
  O     -181.113    -119.729     -20.430
  C     -179.365    -120.809     -21.741
  O     -178.031    -121.374     -21.596
  C     -180.184    -121.879     -22.460
  O     -179.870    -121.837     -23.858
  C     -179.628    -123.155     -21.855
  O     -179.935    -124.293     -22.653
  C     -178.123    -122.820     -21.711
  N     -177.485    -123.461     -20.541
  C     -177.276    -124.842     -20.576
  O     -177.587    -125.562     -21.519
  N     -176.712    -125.391     -19.452
  C     -176.310    -124.709     -18.346
  O     -175.896    -125.262     -17.330
  C     -176.426    -123.247     -18.416
  C     -177.004    -122.698     -19.487
  O     -180.060    -117.894     -19.042
  O     -182.458    -117.562     -19.896
  H     -179.338    -124.256     -23.438
  H     -180.156    -116.927     -18.954
  H     -176.617    -126.395     -19.433
  H     -176.052    -122.668     -17.579
  H     -177.119    -121.620     -19.552
  H     -177.562    -123.135     -22.604
  H     -180.069    -123.320     -20.872
  H     -181.266    -121.798     -22.317
  H     -179.281    -119.908     -22.359
  H     -179.992    -121.306     -19.714
  H     -179.137    -119.778     -19.850
  P     -180.860    -121.020     -24.826
  C     -182.268    -123.035     -25.582
  O     -182.247    -121.830     -24.836
  O     -180.308    -120.658     -26.162
  O     -181.222    -119.723     -23.952
  H     -181.564    -119.023     -24.533
  H     -182.998    -123.716     -25.124
  H     -181.288    -123.523     -25.587
  H     -182.580    -122.823     -26.606
  H     -183.105    -120.630     -17.073
  H     -182.584    -121.065     -18.684
  H     -183.815    -119.845     -18.464

 3  4  5  6  7  8  9  10  11  12  13  23  28  29  30  31  32 0
 6-311+G(2d,p)
 ****
 33  34 0
 6-311+G(2d,p)
 ****
 1  2  14  15  16  17  18  19  20  21  22  24  25  26  27 0
 3-21G
 ****
 35  36  37  38  39  40  41  42  43  44  45 0
 3-21G
 ****


