%nproc=1
%NoSave
%Mem=1900MB
#P OB98/GEN NMR

erre ene a

0 1
  C      121.616    -199.826     224.946
  O      121.152    -198.495     225.045
  H      121.534    -200.148     223.905
  H      121.011    -200.494     225.567
  H      122.665    -199.887     225.250
  P      121.060    -197.825     226.502
  C      118.868    -199.047     227.146
  O      119.485    -197.808     226.829
  C      117.508    -198.805     227.801
  O      116.789    -200.046     227.975
  C      117.567    -198.192     229.198
  O      117.899    -196.811     229.194
  C      116.138    -198.446     229.658
  O      115.254    -197.505     229.025
  C      115.899    -199.880     229.115
  N      116.150    -200.916     230.117
  C      115.024    -201.498     230.712
  O      113.892    -201.139     230.392
  N      115.206    -202.451     231.685
  C      116.409    -202.782     232.048
  N      116.535    -203.696     233.051
  C      117.625    -202.207     231.435
  C      117.424    -201.286     230.493
  O      121.763    -196.517     226.676
  O      121.582    -198.967     227.499
  H      114.375    -197.625     229.424
  H      121.555    -198.597     228.415
  H      118.603    -202.510     231.781
  H      118.269    -200.806     230.006
  H      114.876    -199.987     228.744
  H      116.010    -198.342     230.739
  H      118.247    -198.757     229.843
  H      116.915    -198.187     227.111
  H      115.681    -204.037     233.473
  H      119.534    -199.598     227.817
  H      117.401    -203.794     233.569
  H      118.711    -199.635     226.237
  P      118.683    -196.225     230.466
  C      116.741    -196.681     232.146
  O      117.564    -195.723     231.504
  O      119.315    -194.869     229.904
  O      119.710    -197.132     231.071
  H      120.230    -195.010     229.588
  H      116.056    -196.182     232.799
  H      117.351    -197.352     232.714
  H      116.195    -197.233     231.410

 6  7  8  9  10  11  12  13  14  15  16  26  30  31  32  33  35 0
 6-311+G(2d,p)
 ****
 37  38 0
 6-311+G(2d,p)
 ****
 1  2  3  4  5  17  18  19  20  21  22  23  24  25 0
 3-21G
 ****
 27  28  29  34  36  39  40  41  42  43  44  45  46 0
 3-21G
 ****


