%nproc=1
%NoSave
%Mem=1900MB
#P OB98/GEN NMR

erre ene a

0 1
  C     -418.976     236.556    -331.717
  O     -420.188     236.402    -330.975
  P     -420.373     235.026    -330.173
  C     -420.829     235.981    -327.802
  O     -419.936     235.273    -328.650
  C     -420.107     237.154    -327.140
  O     -419.681     238.136    -328.109
  C     -420.974     237.918    -326.149
  O     -421.126     237.194    -324.940
  C     -420.182     239.215    -326.017
  O     -419.068     239.037    -325.127
  C     -419.672     239.425    -327.451
  N     -420.498     244.373    -328.461
  C     -419.618     243.753    -327.645
  N     -419.462     242.429    -327.430
  C     -420.328     241.722    -328.173
  C     -421.279     242.214    -329.052
  C     -421.352     243.612    -329.183
  N     -422.258     244.245    -330.003
  N     -421.988     241.182    -329.632
  C     -421.488     240.088    -329.094
  N     -420.476     240.362    -328.215
  O     -419.208     234.098    -330.757
  O     -421.717     234.402    -330.354
  H     -418.576     239.882    -325.103
  H     -419.588     233.403    -331.325
  H     -418.949     244.405    -327.087
  H     -421.825     239.081    -329.307
  H     -418.641     239.795    -327.475
  H     -420.781     240.045    -325.629
  H     -421.959     238.123    -326.587
  H     -419.217     236.763    -326.630
  H     -421.231     235.315    -327.034
  H     -422.297     245.251    -329.980
  H     -422.956     243.691    -330.479
  H     -421.680     236.326    -328.396
  P     -422.491     236.384    -324.722
  C     -421.316     234.203    -324.045
  O     -422.085     234.862    -325.037
  O     -423.324     236.799    -326.021
  O     -423.161     236.619    -323.413
  H     -422.781     236.755    -326.828
  H     -421.142     233.174    -324.369
  H     -421.857     234.190    -323.095
  H     -420.355     234.704    -323.922
  H     -418.974     237.509    -332.203
  H     -418.906     235.781    -332.451
  H     -418.140     236.493    -331.052

 3  4  5  6  7  8  9  10  11  12  22  25  29  30  31  32 0
 6-311+G(2d,p)
 ****
 33  36  37 0
 6-311+G(2d,p)
 ****
 1  2  13  14  15  16  17  18  19  20  21  23  24  26 0
 3-21G
 ****
 27  28  34  35  38  39  40  41  42  43  44  45  46  47  48 0
 3-21G
 ****


