%nproc=1
%NoSave
%Mem=1900MB
#P OB98/GEN NMR

erre ene a

0 1
  C       42.855     319.252      13.929
  O       42.702     317.967      13.362
  P       41.275     317.245      13.321
  C       40.372     319.195      11.921
  O       40.159     318.366      13.055
  C       39.072     319.438      11.154
  O       39.310     320.393      10.091
  C       38.468     318.173      10.526
  O       37.045     318.275      10.653
  C       38.882     318.286       9.071
  O       38.048     317.522       8.210
  C       38.818     319.803       8.871
  N       39.584     320.245       7.718
  C       38.860     320.680       6.606
  O       37.634     320.556       6.577
  N       39.548     321.227       5.552
  C       40.844     321.165       5.532
  N       41.486     321.782       4.501
  C       41.631     320.488       6.578
  C       40.951     320.094       7.652
  O       40.986     316.344      14.474
  O       41.290     316.424      11.945
  H       41.065     315.490      12.128
  H       38.463     317.481       7.323
  H       42.695     320.351       6.457
  H       41.443     319.608       8.489
  H       37.777     320.131       8.751
  H       39.911     317.926       8.954
  H       38.811     317.254      11.010
  H       38.348     319.894      11.846
  H       40.914     322.271       3.823
  H       41.083     318.694      11.263
  H       42.463     322.060       4.562
  H       40.819     320.146      12.234
  P       36.163     316.957      10.397
  C       36.839     315.999      12.713
  O       36.747     315.785      11.319
  O       36.666     316.513       8.936
  O       34.681     317.137      10.389
  H       35.964     315.993       8.505
  H       37.318     315.131      13.169
  H       35.842     316.115      13.146
  H       37.442     316.885      12.928
  H       43.879     319.554      13.858
  H       42.562     319.225      14.958
  H       42.240     319.950      13.401

 3  4  5  6  7  8  9  10  11  12  13  24  27  28  29  30  32 0
 6-311+G(2d,p)
 ****
 34  35 0
 6-311+G(2d,p)
 ****
 1  2  14  15  16  17  18  19  20  21  22  23  25  26 0
 3-21G
 ****
 31  33  36  37  38  39  40  41  42  43  44  45  46 0
 3-21G
 ****


