%nproc=1
%NoSave
%Mem=1900MB
#P OB98/GEN NMR

erre ene a

0 1
  C       12.245     755.477    -647.872
  O       11.082     755.179    -647.112
  P        9.816     754.489    -647.809
  C        9.794     752.658    -646.006
  O        9.037     753.661    -646.659
  C        8.899     751.544    -645.474
  O        8.201     751.996    -644.285
  C        7.806     751.059    -646.467
  O        7.639     749.653    -646.247
  C        6.578     751.812    -646.018
  O        5.360     751.209    -646.456
  C        6.789     751.778    -644.494
  N        2.904     752.660    -641.250
  C        3.405     751.515    -641.781
  N        4.431     751.369    -642.661
  C        4.965     752.563    -642.987
  C        4.556     753.805    -642.540
  C        3.502     753.845    -641.617
  N        3.003     755.000    -641.035
  N        5.320     754.807    -643.142
  C        6.153     754.152    -643.927
  N        6.021     752.806    -643.818
  O       10.110     753.701    -649.037
  O        8.831     755.701    -648.113
  H        5.303     751.299    -647.420
  H        8.832     755.899    -649.082
  H        2.905     750.609    -641.465
  H        6.878     754.621    -644.597
  H        6.520     750.803    -644.056
  H        6.597     752.827    -646.404
  H        8.062     751.249    -647.523
  H        9.536     750.688    -645.167
  H       10.314     753.120    -645.155
  H        2.337     754.900    -640.288
  H        3.577     755.846    -641.088
  H       10.554     752.253    -646.685
  P        7.692     748.626    -647.483
  C        8.222     746.660    -645.954
  O        7.312     747.183    -646.891
  O        8.927     748.690    -648.321
  O        6.368     749.030    -648.338
  H        6.456     748.659    -649.242
  H        9.084     746.220    -646.477
  H        7.711     745.868    -645.370
  H        8.581     747.419    -645.275
  H       12.978     755.932    -647.239
  H       11.991     756.150    -648.664
  H       12.642     754.574    -648.286

 3  4  5  6  7  8  9  10  11  12  22  25  29  30  31  32 0
 6-311+G(2d,p)
 ****
 33  36  37 0
 6-311+G(2d,p)
 ****
 1  2  13  14  15  16  17  18  19  20  21  23  24  26 0
 3-21G
 ****
 27  28  34  35  38  39  40  41  42  43  44  45  46  47  48 0
 3-21G
 ****


