%nproc=1
%NoSave
%Mem=1900MB
#P OB98/GEN NMR

erre ene a

0 1
  C      409.299     141.033      70.364
  O      408.147     141.528      71.028
  P      406.746     141.455      70.251
  C      405.561     140.729      72.441
  O      405.596     141.637      71.347
  C      404.769     141.300      73.621
  O      405.517     142.406      74.195
  C      403.380     141.814      73.254
  O      402.494     141.508      74.341
  C      403.565     143.318      73.177
  O      402.334     144.012      73.392
  C      404.633     143.540      74.256
  N      405.365     144.792      74.062
  C      404.637     145.986      74.170
  O      403.412     145.936      74.347
  N      405.282     147.179      74.023
  C      406.541     147.192      73.692
  N      407.146     148.400      73.556
  C      407.325     145.960      73.436
  C      406.679     144.813      73.662
  O      406.636     139.905      69.849
  O      406.655     142.352      69.051
  H      402.529     144.971      73.458
  H      406.164     139.796      68.999
  H      408.356     146.030      73.119
  H      407.187     143.855      73.520
  H      404.181     143.565      75.251
  H      403.944     143.594      72.184
  H      402.986     141.371      72.329
  H      404.700     140.521      74.393
  H      406.587     149.231      73.722
  H      406.585     140.534      72.774
  H      408.119     148.509      73.300
  H      405.119     139.784      72.104
  P      401.548     140.219      74.203
  C      401.362     139.687      76.711
  O      400.701     140.178      75.558
  O      402.608     139.030      74.440
  O      400.807     140.018      72.922
  H      402.162     138.166      74.322
  H      400.721     139.839      77.576
  H      402.306     140.208      76.858
  H      401.560     138.600      76.598
  H      410.153     141.146      70.999
  H      409.452     141.582      69.459
  H      409.161     139.997      70.134

 3  4  5  6  7  8  9  10  11  12  13  21  23  27  28  29  30  32 0
 6-311+G(2d,p)
 ****
 34  35 0
 6-311+G(2d,p)
 ****
 1  2  14  15  16  17  18  19  20  22  24  25  26 0
 3-21G
 ****
 31  33  36  37  38  39  40  41  42  43  44  45  46 0
 3-21G
 ****


