%nproc=1
%NoSave
%Mem=1900MB
#P OB98/GEN NMR

erre ene a

0 1
  C     -237.955    -273.611     -32.473
  O     -238.317    -274.805     -33.137
  H     -238.618    -273.474     -31.615
  H     -238.074    -272.756     -33.143
  H     -236.924    -273.663     -32.114
  P     -237.402    -275.323     -34.347
  C     -235.561    -276.676     -33.150
  O     -235.909    -275.451     -33.782
  C     -234.264    -277.216     -33.746
  O     -234.531    -277.900     -34.990
  C     -233.244    -276.135     -34.080
  O     -232.597    -275.663     -32.914
  C     -232.343    -276.881     -35.050
  O     -231.404    -277.710     -34.348
  C     -233.365    -277.740     -35.828
  N     -233.720    -277.165     -37.124
  C     -233.031    -277.654     -38.230
  O     -232.141    -278.499     -38.152
  N     -233.381    -277.111     -39.438
  C     -234.247    -276.074     -39.629
  O     -234.459    -275.564     -40.725
  C     -234.927    -275.581     -38.423
  C     -234.639    -276.141     -37.246
  O     -237.531    -274.564     -35.625
  O     -237.848    -276.851     -34.528
  H     -231.931    -278.275     -33.750
  H     -238.409    -276.933     -35.321
  H     -232.884    -277.442     -40.248
  H     -235.632    -274.769     -38.536
  H     -235.125    -275.786     -36.345
  H     -232.962    -278.746     -36.000
  H     -231.765    -276.206     -35.681
  H     -233.730    -275.310     -34.613
  H     -233.841    -277.947     -33.043
  H     -236.367    -277.399     -33.317
  H     -235.455    -276.504     -32.074
  P     -231.903    -274.221     -32.915
  C     -234.070    -273.242     -31.942
  O     -233.065    -273.119     -32.944
  O     -230.825    -274.031     -33.930
  O     -231.314    -274.083     -31.432
  H     -230.345    -273.977     -31.478
  H     -234.788    -272.457     -32.059
  H     -233.619    -273.172     -30.974
  H     -234.558    -274.189     -32.040

 6  7  8  9  10  11  12  13  14  15  16  26  31  32  33  34  35 0
 6-311+G(2d,p)
 ****
 36  37 0
 6-311+G(2d,p)
 ****
 1  2  3  4  5  17  18  19  20  21  22  23  24  25 0
 3-21G
 ****
 27  28  29  30  38  39  40  41  42  43  44  45 0
 3-21G
 ****


