%nproc=1
%NoSave
%Mem=1900MB
#P OB98/GEN NMR

erre ene a

0 1
  C       37.181     215.912     223.174
  O       37.291     214.534     222.885
  H       37.146     216.040     224.260
  H       36.266     216.325     222.743
  H       38.051     216.452     222.788
  P       37.247     214.069     221.353
  C       35.469     214.126     219.477
  O       35.727     214.228     220.869
  C       34.236     214.955     219.089
  O       33.038     214.210     219.449
  C       34.157     216.317     219.797
  O       33.470     217.217     218.918
  C       33.294     215.979     220.997
  O       32.808     217.139     221.627
  C       32.271     215.040     220.349
  N       31.534     214.255     221.325
  C       30.505     214.916     222.001
  O       30.272     216.103     221.770
  N       29.788     214.227     222.946
  C       30.113     213.007     223.239
  N       29.371     212.386     224.194
  C       31.231     212.290     222.589
  C       31.890     212.966     221.648
  O       37.863     212.742     221.058
  O       38.001     215.248     220.572
  H       32.159     216.910     222.331
  H       38.893     214.952     220.313
  H       31.473     211.280     222.883
  H       32.727     212.525     221.117
  H       31.553     215.608     219.742
  H       33.877     215.438     221.750
  H       35.138     216.719     220.061
  H       34.221     215.073     217.999
  H       28.622     212.918     224.621
  H       35.294     213.071     219.250
  H       29.544     211.446     224.517
  H       36.336     214.471     218.906
  P       34.171     218.507     218.271
  C       34.244     221.059     218.646
  O       33.837     219.795     219.163
  O       33.889     218.685     216.814
  O       35.742     218.289     218.511
  H       36.236     218.710     217.782
  H       33.964     221.832     219.331
  H       33.767     221.229     217.703
  H       35.306     221.066     218.515

 6  7  8  9  10  11  12  13  14  15  16  26  30  31  32  33  35 0
 6-311+G(2d,p)
 ****
 37  38 0
 6-311+G(2d,p)
 ****
 1  2  3  4  5  17  18  19  20  21  22  23  24  25 0
 3-21G
 ****
 27  28  29  34  36  39  40  41  42  43  44  45  46 0
 3-21G
 ****


