%nproc=1
%NoSave
%Mem=1900MB
#P OB98/GEN NMR

erre ene a

0 1
  C      990.885     177.192    -462.294
  O      989.485     177.377    -462.385
  H      991.294     177.817    -461.490
  H      991.087     176.139    -462.060
  H      991.369     177.442    -463.240
  P      988.970     178.859    -462.737
  C      986.967     178.265    -461.181
  O      987.929     179.245    -461.576
  C      985.921     178.919    -460.264
  O      986.504     179.221    -458.990
  C      985.370     180.251    -460.779
  O      984.352     180.051    -461.759
  C      984.817     180.840    -459.493
  O      983.548     180.197    -459.189
  C      985.886     180.451    -458.478
  N      987.460     184.286    -455.477
  C      986.387     183.470    -455.438
  N      986.054     182.483    -456.269
  C      986.925     182.349    -457.255
  C      988.086     183.099    -457.445
  C      988.335     184.117    -456.497
  N      989.438     184.943    -456.580
  N      988.750     182.710    -458.592
  C      988.011     181.691    -459.056
  N      986.898     181.442    -458.294
  O      988.018     178.637    -464.018
  O      990.037     179.878    -462.995
  H      983.281     180.531    -458.316
  H      987.907     179.475    -464.498
  H      985.690     183.653    -454.598
  H      988.261     181.129    -459.940
  H      985.462     180.213    -457.495
  H      984.623     181.915    -459.579
  H      986.180     180.906    -461.157
  H      985.107     178.181    -460.116
  H      987.474     177.473    -460.637
  H      989.443     185.742    -455.945
  H      990.019     184.919    -457.384
  H      986.480     177.855    -462.071
  P      984.353     181.061    -463.018
  C      981.758     180.786    -463.075
  O      982.871     181.686    -463.077
  O      984.374     180.063    -464.280
  O      985.471     182.040    -463.057
  H      984.796     180.505    -465.052
  H      980.847     181.345    -463.117
  H      981.775     180.199    -462.180
  H      981.820     180.140    -463.926

 6  7  8  9  10  11  12  13  14  15  25  28  32  33  34  35 0
 6-311+G(2d,p)
 ****
 36  39  40 0
 6-311+G(2d,p)
 ****
 1  2  3  4  5  16  17  18  19  20  21  22  23  24 0
 3-21G
 ****
 26  27  29  30  31  37  38  41  42  43  44  45  46  47 0
 3-21G
 ****
 48 0
 3-21G
 ****


