%nproc=1
%NoSave
%Mem=1900MB
#P OB98/GEN NMR

erre ene a

0 1
  C      146.152     309.285     263.934
  O      146.387     310.203     262.879
  P      147.357     309.730     261.688
  C      145.502     308.499     260.347
  O      146.713     308.387     261.088
  C      144.849     307.130     260.138
  O      143.500     307.322     259.653
  C      145.588     306.234     259.141
  O      145.500     304.891     259.615
  C      144.767     306.366     257.873
  O      144.931     305.234     257.017
  C      143.354     306.544     258.448
  N      142.448     307.188     257.502
  C      142.065     306.439     256.384
  O      142.550     305.324     256.195
  N      141.187     306.992     255.487
  C      140.811     308.224     255.634
  N      139.937     308.727     254.720
  C      141.290     309.088     256.730
  C      142.081     308.507     257.631
  O      148.650     309.202     262.465
  O      147.685     310.795     260.694
  H      145.846     305.250     256.665
  H      149.458     309.356     261.940
  H      140.973     310.121     256.786
  H      142.458     309.054     258.482
  H      142.926     305.572     258.733
  H      145.073     307.262     257.321
  H      146.639     306.512     259.014
  H      144.778     306.633     261.112
  H      139.637     308.122     253.968
  H      145.725     308.926     259.365
  H      139.590     309.677     254.752
  H      144.819     309.178     260.867
  P      146.452     303.797     258.929
  C      147.972     303.654     260.993
  O      147.883     304.000     259.625
  O      146.702     304.450     257.487
  O      145.950     302.397     258.808
  H      147.227     303.840     256.936
  H      149.020     303.708     261.301
  H      147.613     302.634     261.157
  H      147.393     304.360     261.594
  H      145.494     309.728     264.652
  H      147.080     309.038     264.406
  H      145.705     308.396     263.540

 3  4  5  6  7  8  9  10  11  12  13  21  23  27  28  29  30  32 0
 6-311+G(2d,p)
 ****
 34  35 0
 6-311+G(2d,p)
 ****
 1  2  14  15  16  17  18  19  20  22  24  25  26 0
 3-21G
 ****
 31  33  36  37  38  39  40  41  42  43  44  45  46 0
 3-21G
 ****


