%nproc=1
%NoSave
%Mem=1900MB
#P OB98/GEN NMR

erre ene a

0 1
  C     -328.376      29.903    -329.205
  O     -329.211      31.015    -329.458
  H     -327.365      30.135    -329.555
  H     -328.741      29.021    -329.744
  H     -328.344      29.691    -328.132
  P     -330.772      30.827    -329.111
  C     -332.640      29.384    -330.225
  O     -331.262      29.726    -330.176
  C     -332.908      28.489    -331.435
  O     -332.028      27.344    -331.420
  C     -334.317      27.917    -331.488
  O     -335.278      28.852    -331.961
  C     -334.113      26.774    -332.467
  O     -334.025      27.297    -333.808
  C     -332.751      26.217    -331.993
  N     -332.881      25.135    -331.011
  C     -333.180      23.867    -331.516
  O     -333.331      23.690    -332.722
  N     -333.329      22.819    -330.633
  C     -333.185      23.025    -329.357
  N     -333.360      21.958    -328.527
  C     -332.853      24.343    -328.785
  C     -332.722      25.340    -329.658
  O     -331.443      32.170    -329.663
  O     -331.092      30.513    -327.686
  H     -333.311      27.958    -333.805
  H     -332.426      32.098    -329.605
  H     -332.754      24.467    -327.717
  H     -332.475      26.337    -329.311
  H     -332.158      25.851    -332.840
  H     -334.930      26.045    -332.457
  H     -334.627      27.502    -330.517
  H     -332.672      29.069    -332.342
  H     -333.649      21.084    -328.942
  H     -333.226      30.309    -330.300
  H     -333.445      22.058    -327.521
  H     -332.931      28.857    -329.310
  P     -336.828      28.445    -331.863
  C     -338.362      26.928    -333.315
  O     -337.049      27.188    -332.838
  O     -337.561      29.639    -332.634
  O     -337.350      28.265    -330.469
  H     -338.404      29.876    -332.195
  H     -338.347      26.065    -333.948
  H     -338.713      27.772    -333.871
  H     -339.014      26.751    -332.486

 6  7  8  9  10  11  12  13  14  15  16  26  30  31  32  33  35 0
 6-311+G(2d,p)
 ****
 37  38 0
 6-311+G(2d,p)
 ****
 1  2  3  4  5  17  18  19  20  21  22  23  24  25 0
 3-21G
 ****
 27  28  29  34  36  39  40  41  42  43  44  45  46 0
 3-21G
 ****


