%nproc=1
%NoSave
%Mem=1900MB
#P OB98/GEN NMR

erre ene a

0 1
  C     -247.320      71.744    -181.750
  O     -247.768      72.939    -181.130
  P     -248.530      72.812    -179.726
  C     -250.909      72.541    -180.706
  O     -250.020      73.363    -179.964
  C     -252.329      72.640    -180.163
  O     -253.218      71.868    -181.017
  C     -252.494      72.117    -178.727
  O     -253.325      73.020    -177.986
  C     -253.271      70.821    -178.912
  O     -254.014      70.477    -177.749
  C     -254.120      71.179    -180.129
  N     -258.468      68.720    -180.881
  C     -258.246      69.978    -180.359
  N     -259.332      70.651    -179.921
  N     -257.064      70.530    -180.268
  C     -256.069      69.755    -180.769
  C     -256.167      68.499    -181.321
  C     -257.472      67.877    -181.361
  O     -257.723      66.728    -181.729
  N     -254.941      68.041    -181.735
  C     -254.105      69.014    -181.430
  N     -254.735      70.057    -180.801
  O     -247.839      73.951    -178.840
  O     -248.432      71.479    -179.065
  H     -254.378      69.579    -177.895
  H     -247.476      73.557    -178.021
  H     -259.397      68.338    -180.911
  H     -253.038      68.995    -181.624
  H     -254.922      71.879    -179.847
  H     -252.570      70.012    -179.133
  H     -260.276      70.303    -179.998
  H     -251.550      71.958    -178.195
  H     -259.193      71.584    -179.556
  H     -252.655      73.688    -180.231
  H     -250.572      71.500    -180.645
  H     -250.886      72.853    -181.758
  P     -252.649      73.696    -176.694
  C     -253.118      71.918    -174.853
  O     -253.478      73.154    -175.435
  O     -253.088      75.230    -176.810
  O     -251.167      73.527    -176.629
  H     -252.456      75.803    -176.334
  H     -252.177      71.530    -175.250
  H     -253.911      71.189    -175.048
  H     -253.018      72.049    -173.772
  H     -246.833      71.982    -182.673
  H     -248.157      71.107    -181.943
  H     -246.632      71.243    -181.102

 3  4  5  6  7  8  9  10  11  12  23  26  30  31  33  0
 6-311+G(2d,p)
 ****
 35  36  37  38 0
 6-311+G(2d,p)
 ****
 1  2  13  14  15  16  17  18  19  20  21  22  24  25  27  28  29 0
 3-21G
 ****
 32  34  39  40  41  42  43  44  45  46  47  48  49 0
 3-21G
 ****


