%nproc=1
%NoSave
%Mem=1900MB
#P OB98/GEN NMR

erre ene a

0 1
  C     -183.736     402.538      95.928
  O     -182.508     402.210      96.584
  P     -182.264     400.657      96.923
  C     -183.398     400.729      99.263
  O     -183.405     400.186      97.947
  C     -184.070     399.765     100.235
  O     -185.378     399.351      99.760
  C     -183.292     398.474     100.443
  O     -182.164     398.691     101.276
  C     -184.369     397.581     101.054
  O     -184.543     397.877     102.453
  C     -185.624     398.016     100.272
  N     -187.632     393.482      99.021
  C     -187.442     394.085     100.216
  N     -186.895     395.296     100.464
  C     -186.538     395.904      99.320
  C     -186.677     395.412      98.031
  C     -187.247     394.137      97.899
  N     -187.433     393.510      96.680
  N     -186.199     396.320      97.111
  C     -185.754     397.327      97.832
  N     -185.953     397.134      99.173
  O     -180.936     400.680      97.812
  O     -182.106     399.800      95.712
  H     -183.691     397.700     102.898
  H     -180.185     400.314      97.303
  H     -187.759     393.525     101.089
  H     -185.289     398.224      97.433
  H     -186.510     398.080     100.917
  H     -184.140     396.518     100.974
  H     -182.967     398.063      99.478
  H     -184.203     400.282     101.193
  H     -183.915     401.694      99.273
  H     -187.774     392.567      96.685
  H     -187.069     393.954      95.848
  H     -182.363     400.932      99.552
  P     -180.731     398.835     100.567
  C     -180.356     396.329     100.979
  O     -180.425     397.356     100.008
  O     -179.761     398.946     101.831
  O     -180.632     399.938      99.570
  H     -179.969     398.273     102.509
  H     -180.179     395.377     100.466
  H     -181.295     396.263     101.542
  H     -179.526     396.519     101.666
  H     -183.779     403.594      95.759
  H     -184.559     402.242      96.544
  H     -183.788     402.024      94.991

 3  4  5  6  7  8  9  10  11  12  22  25  29  30  31  32 0
 6-311+G(2d,p)
 ****
 33  36  37 0
 6-311+G(2d,p)
 ****
 1  2  13  14  15  16  17  18  19  20  21  23  24  26 0
 3-21G
 ****
 27  28  34  35  38  39  40  41  42  43  44  45  46  47  48 0
 3-21G
 ****


