%nproc=1
%NoSave
%Mem=1900MB
#P OB98/GEN NMR

erre ene a

0 1
  C      272.984     309.092    1063.132
  O      273.342     310.410    1062.686
  P      274.131     310.673    1061.315
  C      276.278     311.142    1062.675
  O      275.710     310.439    1061.581
  C      277.756     310.828    1062.853
  O      277.981     309.384    1062.893
  C      278.655     311.367    1061.734
  O      278.904     312.727    1061.901
  C      279.892     310.462    1061.881
  O      280.747     310.927    1062.949
  C      279.244     309.095    1062.272
  N      280.838     304.742    1060.107
  C      281.172     305.345    1061.288
  N      280.715     306.513    1061.771
  C      279.787     307.045    1060.954
  C      279.330     306.547    1059.757
  C      279.901     305.316    1059.334
  N      279.569     304.699    1058.144
  N      278.385     307.358    1059.180
  C      278.259     308.354    1060.063
  N      279.084     308.202    1061.147
  O      273.823     311.976    1060.667
  O      273.729     309.440    1060.370
  H      280.183     311.411    1063.572
  H      273.788     309.721    1059.444
  H      281.925     304.836    1061.880
  H      277.586     309.205    1059.931
  H      279.857     308.572    1063.027
  H      280.486     310.410    1060.970
  H      278.198     311.168    1060.761
  H      278.089     311.227    1063.809
  H      275.736     310.859    1063.606
  H      280.031     303.844    1057.893
  H      278.913     305.163    1057.519
  H      276.147     312.222    1062.525
  P      278.411     313.792    1060.815
  C      280.819     314.018    1059.938
  O      279.462     313.733    1059.599
  O      278.089     315.154    1061.320
  O      277.118     313.077    1060.163
  H      276.481     313.767    1059.865
  H      280.966     315.104    1060.026
  H      281.446     313.626    1059.147
  H      281.100     313.519    1060.866
  H      272.467     309.160    1064.066
  H      273.870     308.505    1063.257
  H      272.349     308.630    1062.405

 3  4  5  6  7  8  9  10  11  12  22  25  29  30  31  32 0
 6-311+G(2d,p)
 ****
 33  36  37 0
 6-311+G(2d,p)
 ****
 1  2  13  14  15  16  17  18  19  20  21  23  24  26 0
 3-21G
 ****
 27  28  34  35  38  39  40  41  42  43  44  45  46  47  48 0
 3-21G
 ****


