%nproc=1
%NoSave
%Mem=1900MB
#P OB98/GEN NMR

erre ene a

0 1
  C      888.160    -161.272      15.843
  O      888.232    -162.019      14.639
  P      888.994    -161.411      13.366
  C      890.375    -163.437      12.500
  O      889.236    -162.621      12.342
  C      890.874    -163.962      11.135
  O      889.749    -164.569      10.463
  C      891.392    -162.885      10.192
  O      892.187    -163.517       9.179
  C      890.109    -162.358       9.574
  O      890.338    -161.677       8.348
  C      889.237    -163.641       9.473
  N      887.818    -163.346       9.725
  C      886.886    -164.205       9.151
  O      887.202    -165.215       8.520
  N      885.576    -163.825       9.251
  C      885.136    -162.665       9.823
  O      884.018    -162.192       9.633
  C      886.127    -161.919      10.619
  C      887.416    -162.278      10.513
  O      890.464    -161.100      13.945
  O      888.366    -160.198      12.778
  H      890.747    -162.323       7.732
  H      890.524    -160.165      14.204
  H      884.914    -164.366       8.712
  H      885.793    -161.083      11.209
  H      888.178    -161.721      11.040
  H      889.324    -164.108       8.479
  H      889.646    -161.650      10.276
  H      891.964    -162.091      10.679
  H      891.630    -164.734      11.303
  H      890.143    -164.271      13.168
  H      891.184    -162.872      12.975
  P      893.538    -162.784       8.721
  C      895.121    -164.796       8.838
  O      894.427    -163.899       7.997
  O      894.231    -161.980       9.766
  O      893.051    -161.868       7.496
  H      893.710    -161.173       7.328
  H      895.243    -165.752       8.311
  H      894.580    -164.974       9.769
  H      896.106    -164.392       9.063
  H      887.618    -161.831      16.577
  H      887.658    -160.345      15.658
  H      889.149    -161.077      16.201

 3  4  5  6  7  8  9  10  11  12  13  23  28  29  30  31  32 0
 6-311+G(2d,p)
 ****
 33  34 0
 6-311+G(2d,p)
 ****
 1  2  14  15  16  17  18  19  20  21  22  24  25  26  27 0
 3-21G
 ****
 35  36  37  38  39  40  41  42  43  44  45 0
 3-21G
 ****


