%nproc=1
%NoSave
%Mem=1900MB
#P OB98/GEN NMR

erre ene a

0 1
  C      -38.085      81.145     -45.313
  O      -39.041      80.784     -46.289
  H      -38.078      80.383     -44.530
  H      -38.360      82.104     -44.868
  H      -37.085      81.209     -45.752
  P      -38.988      81.578     -47.683
  C      -41.490      82.115     -47.254
  O      -40.505      81.707     -48.191
  C      -42.624      82.847     -47.963
  O      -42.114      83.993     -48.679
  C      -43.375      82.002     -48.987
  O      -44.374      81.201     -48.371
  C      -44.000      83.088     -49.846
  O      -45.144      83.648     -49.165
  C      -42.873      84.127     -49.914
  N      -42.500      83.941     -54.967
  C      -43.619      84.055     -54.166
  N      -44.808      84.121     -54.801
  N      -43.579      84.097     -52.859
  C      -42.324      83.996     -52.361
  C      -41.140      83.872     -53.051
  C      -41.198      83.844     -54.494
  O      -40.234      83.755     -55.250
  N      -40.067      83.796     -52.203
  C      -40.603      83.852     -51.001
  N      -41.970      83.970     -51.041
  O      -38.344      80.500     -48.679
  O      -38.197      82.841     -47.666
  H      -45.788      82.926     -49.047
  H      -37.404      80.723     -48.819
  H      -42.588      83.903     -55.968
  H      -40.049      83.818     -50.073
  H      -43.255      85.153     -49.954
  H      -44.356      82.713     -50.807
  H      -44.912      84.073     -55.802
  H      -42.691      81.399     -49.596
  H      -45.641      84.209     -54.233
  H      -43.312      83.224     -47.195
  H      -41.028      82.782     -46.519
  H      -41.880      81.231     -46.740
  P      -44.354      79.620     -48.642
  C      -46.180      79.917     -50.458
  O      -45.777      79.235     -49.279
  O      -44.427      79.010     -47.164
  O      -43.161      79.117     -49.380
  H      -43.580      78.576     -46.941
  H      -47.141      79.560     -50.766
  H      -45.467      79.737     -51.235
  H      -46.236      80.967     -50.261

 6  7  8  9  10  11  12  13  14  15  26  29  33  34 0
 6-311+G(2d,p)
 ****
 36  38  39  40  41 0
 6-311+G(2d,p)
 ****
 1  2  3  4  5  16  17  18  19  20  21  22  23  24  25 0
 3-21G
 ****
 27  28  30  31  32  35  37  42  43  44  45  46  47 0
 3-21G
 ****
 48  49 0
 3-21G
 ****


