%nproc=1
%NoSave
%Mem=1900MB
#P OB98/GEN NMR

erre ene a

0 1
  C      410.240       0.592     108.259
  O      408.905       0.892     107.839
  P      407.691       0.170     108.603
  C      405.991       0.765     110.482
  O      407.075       1.192     109.670
  C      405.209       1.971     111.021
  O      406.072       2.939     111.652
  C      404.456       2.743     109.940
  O      403.220       2.122     109.628
  C      404.222       4.072     110.641
  O      403.096       3.954     111.539
  C      405.520       4.257     111.434
  N      406.953       9.057     110.347
  C      405.892       8.557     111.024
  N      405.569       7.277     111.258
  C      406.485       6.450     110.722
  C      407.624       6.805     110.001
  C      407.844       8.183     109.821
  N      408.937       8.679     109.137
  N      408.323       5.690     109.601
  C      407.625       4.674     110.082
  N      406.507       5.079     110.757
  O      408.439      -0.912     109.517
  O      406.705      -0.476     107.684
  H      402.293       3.925     110.987
  H      407.885      -1.713     109.599
  H      405.205       9.305     111.437
  H      407.899       3.626     109.970
  H      405.345       4.708     112.423
  H      403.987       4.882     109.943
  H      405.088       2.890     109.049
  H      404.496       1.602     111.774
  H      406.358       0.158     111.308
  H      409.034       9.680     109.073
  H      409.612       8.030     108.765
  H      405.339       0.108     109.887
  P      402.953       1.747     108.082
  C      404.011      -0.002     106.469
  O      403.822       0.422     107.803
  O      403.741       2.901     107.296
  O      401.517       1.679     107.702
  H      403.300       3.074     106.435
  H      404.847      -0.701     106.436
  H      404.237       0.846     105.813
  H      403.108      -0.512     106.112
  H      410.935       1.144     107.661
  H      410.424      -0.456     108.142
  H      410.360       0.863     109.287

 3  4  5  6  7  8  9  10  11  12  22  25  29  30  31  32 0
 6-311+G(2d,p)
 ****
 33  36  37 0
 6-311+G(2d,p)
 ****
 1  2  13  14  15  16  17  18  19  20  21  23  24  26 0
 3-21G
 ****
 27  28  34  35  38  39  40  41  42  43  44  45  46  47  48 0
 3-21G
 ****


