%nproc=1
%NoSave
%Mem=1900MB
#P OB98/GEN NMR

erre ene a

0 1
  C     -610.231    -328.248    -462.043
  O     -609.556    -328.499    -460.826
  H     -611.179    -328.795    -462.037
  H     -609.632    -328.587    -462.891
  H     -610.448    -327.176    -462.149
  P     -608.226    -327.673    -460.487
  C     -608.466    -326.913    -458.034
  O     -607.931    -327.879    -458.928
  C     -607.431    -326.528    -456.970
  O     -607.262    -327.646    -456.050
  C     -606.026    -326.194    -457.543
  O     -605.433    -325.231    -456.664
  C     -605.343    -327.540    -457.435
  O     -603.958    -327.478    -457.637
  C     -605.845    -327.971    -456.038
  N     -605.631    -329.373    -455.701
  C     -604.351    -329.763    -455.319
  O     -603.382    -328.988    -455.248
  N     -604.186    -331.089    -455.012
  C     -605.173    -332.032    -455.028
  O     -604.978    -333.207    -454.713
  C     -606.513    -331.566    -455.445
  C     -606.677    -330.278    -455.743
  O     -608.213    -326.253    -460.956
  O     -607.067    -328.534    -461.191
  H     -606.805    -328.111    -462.025
  H     -603.560    -328.345    -457.419
  H     -603.268    -331.372    -454.738
  H     -607.314    -332.293    -455.474
  H     -607.650    -329.901    -456.042
  H     -605.387    -327.338    -455.274
  H     -605.737    -328.221    -458.208
  H     -606.065    -325.786    -458.556
  H     -607.824    -325.686    -456.383
  H     -609.348    -327.346    -457.540
  H     -608.773    -326.023    -458.593
  P     -605.620    -323.655    -456.818
  C     -604.574    -323.539    -454.454
  O     -604.686    -322.917    -455.728
  O     -607.047    -323.198    -456.786
  O     -604.927    -323.288    -458.232
  H     -605.342    -322.471    -458.585
  H     -603.932    -322.956    -453.827
  H     -604.163    -324.520    -454.571
  H     -605.543    -323.609    -454.005

 6  7  8  9  10  11  12  13  14  15  16  27  31  32  33  34  35 0
 6-311+G(2d,p)
 ****
 36  37 0
 6-311+G(2d,p)
 ****
 1  2  3  4  5  17  18  19  20  21  22  23  24  25 0
 3-21G
 ****
 26  28  29  30  38  39  40  41  42  43  44  45 0
 3-21G
 ****


