%nproc=1
%NoSave
%Mem=1900MB
#P OB98/GEN NMR

erre ene a

0 1
  C     -152.103    -394.854     469.234
  O     -151.110    -395.812     468.922
  H     -153.020    -395.115     468.700
  H     -151.792    -393.853     468.926
  H     -152.310    -394.867     470.307
  P     -149.597    -395.502     469.362
  C     -147.534    -394.622     468.083
  O     -148.953    -394.678     468.135
  C     -147.006    -395.013     466.701
  O     -147.115    -396.437     466.498
  C     -147.783    -394.399     465.548
  O     -147.660    -392.998     465.433
  C     -147.358    -395.280     464.380
  O     -146.105    -394.885     463.830
  C     -147.223    -396.655     465.074
  N     -148.331    -397.554     464.752
  C     -148.145    -398.371     463.633
  O     -147.131    -398.344     462.932
  N     -149.182    -399.203     463.330
  C     -150.379    -399.266     463.987
  O     -151.283    -400.028     463.652
  C     -150.532    -398.353     465.135
  C     -149.511    -397.552     465.462
  O     -148.785    -396.695     469.778
  O     -149.745    -394.391     470.504
  H     -146.122    -393.911     463.759
  H     -148.909    -394.297     471.021
  H     -149.067    -399.816     462.537
  H     -151.472    -398.369     465.669
  H     -149.603    -396.869     466.301
  H     -146.289    -397.149     464.769
  H     -148.091    -395.267     463.569
  H     -148.852    -394.593     465.708
  H     -145.944    -394.748     466.656
  H     -147.146    -395.325     468.832
  H     -147.198    -393.609     468.344
  P     -148.684    -392.080     464.623
  C     -148.622    -390.780     462.357
  O     -148.085    -391.826     463.154
  O     -149.265    -390.915     465.355
  O     -149.885    -393.120     464.324
  H     -150.724    -392.607     464.340
  H     -148.112    -390.750     461.417
  H     -148.494    -389.845     462.862
  H     -149.664    -390.956     462.192

 6  7  8  9  10  11  12  13  14  15  16  26  31  32  33  34  35 0
 6-311+G(2d,p)
 ****
 36  37 0
 6-311+G(2d,p)
 ****
 1  2  3  4  5  17  18  19  20  21  22  23  24  25 0
 3-21G
 ****
 27  28  29  30  38  39  40  41  42  43  44  45 0
 3-21G
 ****


