%nproc=1
%NoSave
%Mem=1900MB
#P OB98/GEN NMR

erre ene a

0 1
  C      136.903    -661.970    -394.428
  O      137.507    -662.858    -395.351
  H      137.686    -661.357    -393.975
  H      136.395    -662.526    -393.637
  H      136.193    -661.314    -394.937
  P      136.562    -663.877    -396.150
  C      136.444    -664.737    -398.582
  O      137.030    -663.805    -397.682
  C      136.451    -664.167    -399.998
  O      135.733    -662.916    -400.039
  C      137.846    -663.880    -400.547
  O      138.443    -665.072    -401.032
  C      137.513    -662.886    -401.644
  O      136.973    -663.583    -402.785
  C      136.417    -662.039    -400.975
  N      136.375    -656.978    -400.659
  C      135.787    -657.815    -401.594
  N      135.143    -657.210    -402.613
  N      135.860    -659.118    -401.540
  C      136.601    -659.579    -400.509
  C      137.241    -658.845    -399.530
  C      137.116    -657.408    -399.562
  O      137.602    -656.630    -398.743
  N      137.953    -659.658    -398.682
  C      137.712    -660.874    -399.128
  N      136.909    -660.879    -400.239
  O      135.083    -663.697    -395.963
  O      137.057    -665.322    -395.678
  H      137.626    -664.265    -403.026
  H      136.537    -665.639    -394.913
  H      136.304    -655.977    -400.760
  H      138.093    -661.789    -398.671
  H      135.673    -661.672    -401.691
  H      138.379    -662.321    -401.988
  H      135.305    -656.239    -402.849
  H      138.479    -663.380    -399.809
  H      134.750    -657.802    -403.329
  H      135.910    -664.869    -400.645
  H      135.418    -664.919    -398.251
  H      136.995    -665.679    -398.565
  P      140.036    -665.199    -401.186
  C      141.605    -667.197    -401.663
  O      140.328    -666.777    -401.203
  O      140.826    -664.428    -400.181
  O      140.328    -664.783    -402.699
  H      140.471    -663.810    -402.827
  H      141.665    -668.265    -401.622
  H      142.365    -666.773    -401.041
  H      141.746    -666.870    -402.672

 6  7  8  9  10  11  12  13  14  15  26  29  33  34 0
 6-311+G(2d,p)
 ****
 36  38  39  40  41 0
 6-311+G(2d,p)
 ****
 1  2  3  4  5  16  17  18  19  20  21  22  23  24  25 0
 3-21G
 ****
 27  28  30  31  32  35  37  42  43  44  45  46  47 0
 3-21G
 ****
 48  49 0
 3-21G
 ****


