%nproc=1
%NoSave
%Mem=1900MB
#P OB98/GEN NMR

erre ene a

0 1
  C     -689.419    -153.633     258.838
  O     -688.973    -152.528     259.592
  H     -688.765    -154.485     259.045
  H     -689.359    -153.394     257.771
  H     -690.444    -153.909     259.095
  P     -689.979    -151.311     259.845
  C     -688.985    -149.759     258.037
  O     -690.127    -150.492     258.471
  C     -689.185    -149.181     256.632
  O     -689.336    -150.253     255.680
  C     -690.448    -148.315     256.533
  O     -690.262    -146.961     256.889
  C     -690.799    -148.450     255.051
  O     -690.126    -147.449     254.263
  C     -690.288    -149.849     254.687
  N     -693.626    -152.294     251.683
  C     -692.816    -151.217     251.377
  N     -692.951    -150.710     250.130
  N     -691.984    -150.680     252.229
  C     -692.032    -151.236     253.463
  C     -692.806    -152.296     253.885
  C     -693.676    -152.929     252.916
  O     -694.394    -153.894     253.127
  N     -692.620    -152.556     255.222
  C     -691.807    -151.596     255.625
  N     -691.360    -150.822     254.577
  O     -689.130    -150.306     260.757
  O     -691.272    -151.669     260.514
  H     -689.163    -147.512     254.452
  H     -689.727    -149.819     261.356
  H     -694.225    -152.682     250.980
  H     -691.476    -151.449     256.643
  H     -689.763    -149.841     253.723
  H     -691.872    -148.309     254.891
  H     -693.638    -151.023     249.468
  H     -691.264    -148.756     257.114
  H     -692.515    -149.803     249.932
  H     -688.287    -148.616     256.345
  H     -688.151    -150.462     258.031
  H     -688.745    -148.967     258.749
  P     -691.492    -146.060     257.375
  C     -692.082    -145.616     254.854
  O     -692.519    -145.920     256.153
  O     -690.858    -144.599     257.487
  O     -692.145    -146.498     258.643
  H     -690.632    -144.400     258.415
  H     -692.924    -145.570     254.196
  H     -691.408    -146.376     254.518
  H     -691.581    -144.671     254.858

 6  7  8  9  10  11  12  13  14  15  26  29  33  34 0
 6-311+G(2d,p)
 ****
 36  38  39  40  41 0
 6-311+G(2d,p)
 ****
 1  2  3  4  5  16  17  18  19  20  21  22  23  24  25 0
 3-21G
 ****
 27  28  30  31  32  35  37  42  43  44  45  46  47 0
 3-21G
 ****
 48  49 0
 3-21G
 ****


