%nproc=1
%NoSave
%Mem=1900MB
#P OB98/GEN NMR

erre ene a

0 1
  C     -130.613     157.053      68.597
  O     -131.433     156.782      69.715
  H     -130.441     156.122      68.053
  H     -129.651     157.449      68.930
  H     -131.099     157.769      67.927
  P     -132.009     158.037      70.528
  C     -134.232     158.781      69.404
  O     -133.609     157.974      70.392
  C     -135.705     158.992      69.756
  O     -136.274     159.942      68.810
  C     -136.552     157.714      69.689
  O     -137.535     157.770      70.727
  C     -137.242     157.831      68.343
  O     -138.445     157.081      68.245
  C     -137.467     159.345      68.264
  N     -137.709     159.807      66.899
  C     -138.946     160.382      66.629
  O     -139.814     160.606      67.469
  N     -139.170     160.707      65.315
  C     -138.314     160.498      64.275
  O     -138.583     160.793      63.117
  C     -137.028     159.879      64.622
  C     -136.790     159.565      65.897
  O     -131.607     159.278      69.604
  O     -131.510     158.179      71.927
  H     -130.725     159.616      69.850
  H     -139.057     157.417      68.931
  H     -140.063     161.124      65.102
  H     -136.327     159.687      63.821
  H     -135.859     159.087      66.184
  H     -138.304     159.640      68.907
  H     -136.568     157.495      67.547
  H     -135.974     156.789      69.775
  H     -135.767     159.452      70.749
  H     -134.167     158.281      68.433
  H     -133.712     159.742      69.342
  P     -137.223     156.966      72.081
  C     -136.489     158.946      73.633
  O     -137.491     158.006      73.271
  O     -135.632     156.845      72.008
  O     -137.955     155.670      72.171
  H     -135.209     157.623      71.607
  H     -136.844     159.552      74.440
  H     -136.263     159.568      72.792
  H     -135.606     158.426      73.939

 6  7  8  9  10  11  12  13  14  15  16  27  31  32  33  34  35 0
 6-311+G(2d,p)
 ****
 36  37 0
 6-311+G(2d,p)
 ****
 1  2  3  4  5  17  18  19  20  21  22  23  24  25 0
 3-21G
 ****
 26  28  29  30  38  39  40  41  42  43  44  45 0
 3-21G
 ****


