%nproc=1
%NoSave
%Mem=1900MB
#P OB98/GEN NMR

erre ene a

0 1
  C      394.827     474.609    -354.888
  O      394.440     473.249    -354.911
  H      394.018     475.238    -355.280
  H      395.029     474.901    -353.857
  H      395.734     474.755    -355.482
  P      394.102     472.614    -356.346
  C      396.465     471.541    -356.495
  O      395.518     472.421    -357.081
  C      396.769     470.391    -357.454
  O      395.623     469.516    -357.548
  C      397.072     470.836    -358.881
  O      398.413     471.264    -359.036
  C      396.823     469.538    -359.634
  O      397.935     468.646    -359.450
  C      395.573     468.995    -358.911
  N      392.972     469.205    -363.308
  C      394.215     468.767    -363.016
  N      394.838     468.752    -361.816
  C      394.036     469.250    -360.863
  C      392.756     469.742    -361.007
  C      392.211     469.699    -362.303
  N      390.945     470.159    -362.609
  N      392.262     470.203    -359.801
  C      393.230     469.963    -358.934
  N      394.327     469.397    -359.531
  O      393.440     473.830    -357.149
  O      393.237     471.399    -356.329
  H      398.029     468.514    -358.484
  H      392.912     473.488    -357.895
  H      394.786     468.382    -363.859
  H      393.180     470.179    -357.873
  H      395.574     467.901    -358.843
  H      396.698     469.686    -360.706
  H      396.368     471.596    -359.228
  H      397.599     469.812    -357.036
  H      396.057     471.137    -355.563
  H      390.723     470.256    -363.586
  H      390.432     470.665    -361.898
  H      397.382     472.094    -356.266
  P      398.748     472.226    -360.276
  C      396.753     473.606    -359.335
  O      397.441     473.127    -360.494
  O      398.721     471.222    -361.522
  O      400.043     472.959    -360.163
  H      399.282     471.552    -362.247
  H      395.908     474.188    -359.637
  H      397.415     474.213    -358.753
  H      396.422     472.775    -358.748

 6  7  8  9  10  11  12  13  14  15  25  28  32  33  34  35 0
 6-311+G(2d,p)
 ****
 36  39  40 0
 6-311+G(2d,p)
 ****
 1  2  3  4  5  16  17  18  19  20  21  22  23  24 0
 3-21G
 ****
 26  27  29  30  31  37  38  41  42  43  44  45  46  47 0
 3-21G
 ****
 48 0
 3-21G
 ****


