%nproc=1
%NoSave
%Mem=1900MB
#P OB98/GEN NMR

erre ene a

0 1
  C      556.142     164.751     -54.178
  O      556.911     164.644     -52.981
  P      556.136     164.662     -51.573
  C      555.575     167.258     -51.504
  O      556.214     166.130     -50.936
  C      555.011     168.140     -50.384
  O      553.930     167.452     -49.709
  C      556.040     168.505     -49.316
  O      556.784     169.652     -49.668
  C      555.169     168.691     -48.094
  O      554.517     169.969     -48.131
  C      554.148     167.539     -48.272
  N      554.498     166.202     -47.762
  C      554.805     166.027     -46.411
  O      554.815     166.943     -45.587
  N      555.110     164.752     -46.020
  C      554.963     163.620     -46.776
  O      555.189     162.488     -46.349
  C      554.489     163.835     -48.145
  C      554.297     165.095     -48.576
  O      557.077     163.785     -50.618
  O      554.742     164.135     -51.625
  H      553.771     169.894     -48.760
  H      556.602     162.978     -50.339
  H      555.398     164.622     -45.061
  H      554.331     162.966     -48.760
  H      553.950     165.256     -49.583
  H      553.192     167.813     -47.809
  H      555.771     168.683     -47.174
  H      556.713     167.655     -49.134
  H      554.608     169.052     -50.833
  H      554.778     166.951     -52.183
  H      556.305     167.820     -52.102
  P      558.338     169.519     -50.048
  C      558.829     170.839     -47.897
  O      559.072     170.735     -49.285
  O      558.647     169.393     -51.499
  O      558.820     168.249     -49.207
  H      558.799     167.429     -49.765
  H      559.493     171.591     -47.473
  H      559.014     169.875     -47.410
  H      557.795     171.159     -47.721
  H      556.795     164.724     -55.025
  H      555.602     165.674     -54.173
  H      555.453     163.935     -54.233

 3  4  5  6  7  8  9  10  11  12  13  23  28  29  30  31  32 0
 6-311+G(2d,p)
 ****
 33  34 0
 6-311+G(2d,p)
 ****
 1  2  14  15  16  17  18  19  20  21  22  24  25  26  27 0
 3-21G
 ****
 35  36  37  38  39  40  41  42  43  44  45 0
 3-21G
 ****


