%nproc=1
%NoSave
%Mem=1900MB
#P OB98/GEN NMR

erre ene a

0 1
  C        0.119     169.920     -61.003
  O        0.919     168.775     -61.226
  P        0.244     167.324     -61.254
  C        1.084     166.663     -58.917
  O       -0.056     166.894     -59.739
  C        0.651     166.270     -57.508
  O        0.259     167.438     -56.756
  C       -0.551     165.336     -57.466
  O       -0.175     164.014     -57.796
  C       -1.024     165.524     -56.030
  O       -0.245     164.715     -55.131
  C       -0.737     167.015     -55.796
  N       -4.331     169.523     -53.188
  C       -3.372     168.658     -52.795
  N       -2.474     167.997     -53.558
  C       -2.654     168.293     -54.857
  C       -3.611     169.128     -55.410
  C       -4.468     169.784     -54.511
  N       -5.408     170.716     -54.893
  N       -3.495     169.148     -56.787
  C       -2.496     168.332     -57.056
  N       -1.916     167.846     -55.919
  O        0.961     166.302     -62.072
  O       -1.219     167.596     -61.845
  H       -0.179     163.826     -55.528
  H       -1.330     167.095     -62.675
  H       -3.312     168.477     -51.725
  H       -2.144     168.080     -58.048
  H       -0.311     167.197     -54.801
  H       -2.072     165.246     -55.891
  H       -1.329     165.697     -58.151
  H        1.512     165.815     -56.998
  H        1.674     167.585     -58.879
  H       -5.868     171.230     -54.157
  H       -5.318     171.140     -55.812
  H        1.697     165.871     -59.359
  P       -1.286     162.962     -58.275
  C       -1.354     161.977     -55.909
  O       -2.109     162.529     -56.971
  O       -0.791     161.838     -59.122
  O       -2.340     163.871     -59.073
  H       -2.741     163.346     -59.790
  H       -1.105     160.937     -56.137
  H       -1.955     162.008     -54.996
  H       -0.434     162.547     -55.747
  H        0.736     170.794     -61.018
  H       -0.362     169.839     -60.051
  H       -0.622     169.993     -61.772

 3  4  5  6  7  8  9  10  11  12  22  25  29  30  31  32 0
 6-311+G(2d,p)
 ****
 33  36  37 0
 6-311+G(2d,p)
 ****
 1  2  13  14  15  16  17  18  19  20  21  23  24  26 0
 3-21G
 ****
 27  28  34  35  38  39  40  41  42  43  44  45  46  47  48 0
 3-21G
 ****


