%nproc=1
%NoSave
%Mem=1900MB
#P OB98/GEN NMR

erre ene a

0 1
  C      520.338    -112.542    -263.218
  O      521.586    -113.115    -262.785
  P      521.788    -114.698    -262.981
  C      520.579    -115.169    -260.733
  O      521.762    -115.330    -261.495
  C      520.275    -116.449    -259.941
  O      519.893    -117.495    -260.842
  C      521.497    -117.001    -259.169
  O      521.693    -116.324    -257.931
  C      521.050    -118.459    -258.939
  O      520.175    -118.500    -257.797
  C      520.264    -118.766    -260.229
  N      522.651    -123.137    -261.175
  C      521.966    -122.747    -260.051
  N      521.876    -123.626    -259.030
  N      521.413    -121.552    -259.930
  C      521.552    -120.783    -261.029
  C      522.229    -121.063    -262.186
  C      522.873    -122.365    -262.300
  O      523.554    -122.735    -263.233
  N      522.117    -120.032    -263.092
  C      521.367    -119.118    -262.483
  N      521.034    -119.528    -261.199
  O      523.312    -114.795    -263.421
  O      520.873    -115.343    -263.973
  H      520.046    -119.453    -257.580
  H      523.463    -115.634    -263.941
  H      523.045    -124.067    -261.225
  H      521.059    -118.187    -262.911
  H      519.341    -119.310    -260.007
  H      521.884    -119.119    -258.744
  H      522.166    -124.589    -259.130
  H      522.399    -117.013    -259.799
  H      521.335    -123.364    -258.221
  H      519.456    -116.248    -259.252
  H      519.728    -114.975    -261.410
  H      520.681    -114.332    -260.055
  P      523.075    -115.484    -257.823
  C      524.716    -117.496    -258.007
  O      524.112    -116.523    -257.173
  O      522.756    -114.447    -256.639
  O      523.504    -114.811    -259.084
  H      523.318    -113.675    -256.722
  H      524.937    -117.093    -259.005
  H      524.078    -118.371    -258.092
  H      525.672    -117.804    -257.550
  H      520.344    -111.489    -263.028
  H      519.532    -112.997    -262.682
  H      520.211    -112.714    -264.266

 3  4  5  6  7  8  9  10  11  12  23  26  30  31  33  0
 6-311+G(2d,p)
 ****
 35  36  37  38 0
 6-311+G(2d,p)
 ****
 1  2  13  14  15  16  17  18  19  20  21  22  24  25  27  28  29 0
 3-21G
 ****
 32  34  39  40  41  42  43  44  45  46  47  48  49 0
 3-21G
 ****


