%nproc=1
%NoSave
%Mem=1900MB
#P OB98/GEN NMR

erre ene a

0 1
  C     -368.366     182.478    -434.905
  O     -369.054     181.309    -435.328
  P     -370.347     181.495    -436.261
  C     -372.773     182.371    -435.923
  O     -371.550     181.985    -435.314
  C     -373.570     183.307    -435.004
  O     -372.709     184.411    -434.607
  C     -374.828     183.916    -435.656
  O     -375.808     184.039    -434.617
  C     -374.325     185.279    -436.100
  O     -375.363     186.210    -436.391
  C     -373.412     185.637    -434.928
  N     -372.109     190.487    -433.940
  C     -373.053     189.683    -433.410
  N     -373.338     188.397    -433.716
  C     -372.519     187.944    -434.679
  C     -371.521     188.658    -435.334
  C     -371.321     189.990    -434.925
  N     -370.359     190.808    -435.488
  N     -370.902     187.868    -436.292
  C     -371.522     186.704    -436.216
  N     -372.481     186.691    -435.238
  O     -370.754     179.992    -436.618
  O     -370.126     182.329    -437.488
  H     -374.971     187.038    -436.739
  H     -371.061     179.921    -437.547
  H     -373.661     190.127    -432.625
  H     -371.313     185.844    -436.851
  H     -373.985     185.942    -434.048
  H     -373.744     185.157    -437.027
  H     -375.243     183.304    -436.468
  H     -373.839     182.753    -434.101
  H     -373.383     181.475    -436.113
  H     -370.431     191.795    -435.267
  H     -369.925     190.496    -436.353
  H     -372.568     182.848    -436.895
  P     -377.360     183.794    -434.971
  C     -378.939     185.337    -436.280
  O     -377.637     184.795    -436.204
  O     -378.069     184.567    -433.758
  O     -377.762     182.361    -435.135
  H     -377.721     185.462    -433.656
  H     -378.965     186.067    -437.093
  H     -379.197     185.840    -435.340
  H     -379.662     184.556    -436.491
  H     -367.532     182.200    -434.294
  H     -369.030     183.098    -434.341
  H     -368.017     183.016    -435.762

 3  4  5  6  7  8  9  10  11  12  22  25  29  30  31  32 0
 6-311+G(2d,p)
 ****
 33  36  37 0
 6-311+G(2d,p)
 ****
 1  2  13  14  15  16  17  18  19  20  21  23  24  26 0
 3-21G
 ****
 27  28  34  35  38  39  40  41  42  43  44  45  46  47  48 0
 3-21G
 ****


