%nproc=1
%NoSave
%Mem=1900MB
#P OB98/GEN NMR

erre ene a

0 1
  C     -217.057     238.101      -4.128
  O     -217.037     238.785      -5.373
  P     -216.714     240.361      -5.461
  C     -218.102     242.513      -5.080
  O     -218.068     241.096      -5.014
  C     -219.331     243.050      -4.335
  O     -219.228     242.667      -2.940
  C     -219.478     244.581      -4.387
  O     -220.882     244.864      -4.429
  C     -218.883     245.027      -3.064
  O     -219.334     246.303      -2.664
  C     -219.322     243.879      -2.148
  N     -218.503     243.775      -0.946
  C     -219.057     244.228       0.249
  O     -220.186     244.722       0.289
  N     -218.314     244.116       1.406
  C     -217.096     243.675       1.353
  N     -216.423     243.526       2.529
  C     -216.434     243.290       0.084
  C     -217.197     243.339      -1.004
  O     -216.167     240.813      -6.772
  O     -215.755     240.643      -4.217
  H     -219.051     246.956      -3.332
  H     -214.804     240.460      -4.416
  H     -215.411     242.949       0.090
  H     -216.803     243.051      -1.970
  H     -220.375     243.992      -1.873
  H     -217.791     245.061      -3.147
  H     -218.992     245.024      -5.259
  H     -220.221     242.565      -4.742
  H     -216.966     243.637       3.381
  H     -218.172     242.803      -6.132
  H     -215.626     242.910       2.600
  H     -217.177     242.924      -4.665
  P     -221.371     246.163      -5.247
  C     -221.416     248.724      -4.819
  O     -220.888     247.465      -4.450
  O     -222.951     246.157      -4.955
  O     -221.132     246.144      -6.725
  H     -223.411     246.622      -5.679
  H     -220.980     249.490      -4.168
  H     -222.499     248.738      -4.693
  H     -221.153     248.959      -5.859
  H     -217.290     237.070      -4.291
  H     -217.799     238.538      -3.493
  H     -216.097     238.180      -3.662

 3  4  5  6  7  8  9  10  11  12  13  23  27  28  29  30  32 0
 6-311+G(2d,p)
 ****
 34  35 0
 6-311+G(2d,p)
 ****
 1  2  14  15  16  17  18  19  20  21  22  24  25  26 0
 3-21G
 ****
 31  33  36  37  38  39  40  41  42  43  44  45  46 0
 3-21G
 ****


