%nproc=1
%NoSave
%Mem=1900MB
#P OB98/GEN NMR

erre ene a

0 1
  C       48.643     -57.897      14.536
  O       49.595     -57.130      13.822
  P       50.755     -56.358      14.610
  C       50.875     -54.184      16.035
  O       50.064     -55.134      15.378
  C       50.023     -53.138      16.764
  O       49.401     -53.785      17.901
  C       50.805     -51.958      17.333
  O       49.891     -50.892      17.597
  C       51.316     -52.525      18.638
  O       51.689     -51.505      19.561
  C       50.145     -53.433      19.091
  N       50.632     -54.649      19.768
  C       49.840     -55.158      20.792
  O       48.744     -54.687      21.089
  N       50.390     -56.177      21.522
  C       51.645     -56.681      21.351
  O       52.229     -57.360      22.187
  C       52.330     -56.272      20.115
  C       51.812     -55.268      19.403
  O       51.576     -55.655      13.431
  O       51.626     -57.224      15.453
  H       52.405     -50.981      19.132
  H       52.350     -56.198      13.188
  H       49.878     -56.448      22.353
  H       53.262     -56.759      19.863
  H       52.323     -54.909      18.514
  H       49.475     -52.907      19.782
  H       52.207     -53.133      18.441
  H       51.620     -51.609      16.692
  H       49.227     -52.788      16.097
  H       51.534     -53.705      15.305
  H       51.528     -54.680      16.762
  P       50.461     -49.394      17.579
  C       52.014     -48.001      19.075
  O       51.314     -49.219      18.925
  O       49.464     -48.318      17.305
  O       51.596     -49.454      16.447
  H       51.803     -48.552      16.141
  H       52.102     -47.774      20.140
  H       51.495     -47.176      18.578
  H       53.016     -48.107      18.651
  H       47.951     -58.336      13.848
  H       48.115     -57.264      15.219
  H       49.144     -58.670      15.081

 3  4  5  6  7  8  9  10  11  12  13  23  28  29  30  31  32 0
 6-311+G(2d,p)
 ****
 33  34 0
 6-311+G(2d,p)
 ****
 1  2  14  15  16  17  18  19  20  21  22  24  25  26  27 0
 3-21G
 ****
 35  36  37  38  39  40  41  42  43  44  45 0
 3-21G
 ****


