%nproc=1
%NoSave
%Mem=1900MB
#P OB98/GEN NMR

erre ene a

0 1
  C     -128.980    -651.362     208.357
  O     -129.036    -651.128     206.964
  H     -128.650    -652.394     208.522
  H     -129.966    -651.230     208.809
  H     -128.262    -650.687     208.824
  P     -129.537    -649.674     206.508
  C     -127.308    -648.690     205.631
  O     -128.562    -649.276     205.297
  C     -126.514    -648.363     204.373
  O     -126.063    -649.568     203.738
  C     -127.301    -647.580     203.329
  O     -127.298    -646.203     203.614
  C     -126.484    -647.894     202.067
  O     -125.337    -647.020     202.025
  C     -126.036    -649.346     202.303
  N     -126.897    -651.926     197.948
  C     -126.128    -650.867     198.223
  N     -125.987    -650.187     199.387
  C     -126.746    -650.745     200.346
  C     -127.589    -651.838     200.226
  C     -127.644    -652.456     198.955
  N     -128.445    -653.552     198.702
  N     -128.204    -652.122     201.423
  C     -127.699    -651.247     202.267
  N     -126.841    -650.369     201.662
  O     -129.692    -648.666     207.594
  O     -130.897    -650.047     205.740
  H     -124.798    -647.305     201.258
  H     -130.773    -650.856     205.210
  H     -125.544    -650.489     197.380
  H     -127.914    -651.222     203.335
  H     -125.002    -649.505     201.970
  H     -127.052    -647.729     201.151
  H     -128.315    -647.994     203.199
  H     -125.620    -647.795     204.674
  H     -126.727    -649.375     206.267
  H     -128.563    -653.800     197.734
  H     -129.083    -653.850     199.411
  H     -127.510    -647.780     206.210
  P     -128.532    -645.259     203.187
  C     -130.290    -646.060     204.896
  O     -129.362    -645.038     204.544
  O     -129.310    -645.756     202.020
  O     -127.865    -643.837     202.934
  H     -128.473    -643.267     202.426
  H     -130.777    -645.799     205.812
  H     -129.770    -646.987     205.020
  H     -131.020    -646.161     204.120

 6  7  8  9  10  11  12  13  14  15  25  28  32  33  34  35 0
 6-311+G(2d,p)
 ****
 36  39  40 0
 6-311+G(2d,p)
 ****
 1  2  3  4  5  16  17  18  19  20  21  22  23  24 0
 3-21G
 ****
 26  27  29  30  31  37  38  41  42  43  44  45  46  47 0
 3-21G
 ****
 48 0
 3-21G
 ****


