%nproc=1
%NoSave
%Mem=1900MB
#P OB98/GEN NMR

erre ene a

0 1
  C      271.662      80.161     488.908
  O      270.760      79.218     488.360
  H      271.126      80.781     489.629
  H      272.062      80.805     488.116
  H      272.479      79.646     489.419
  P      271.363      78.188     487.285
  C      272.081      78.427     484.805
  O      271.470      79.047     485.933
  C      272.451      79.472     483.756
  O      273.411      80.406     484.290
  C      273.091      78.894     482.497
  O      272.103      78.390     481.616
  C      273.767      80.137     481.928
  O      272.795      80.952     481.245
  C      274.260      80.860     483.198
  N      279.006      82.817     483.220
  C      277.865      83.248     482.643
  N      276.647      82.654     482.645
  C      276.680      81.498     483.326
  C      277.774      80.931     483.968
  C      278.984      81.649     483.906
  N      280.147      81.215     484.507
  N      277.432      79.736     484.565
  C      276.138      79.609     484.335
  N      275.648      80.629     483.558
  O      270.669      76.876     487.186
  O      272.894      78.116     487.762
  H      273.238      81.783     480.985
  H      273.208      78.991     488.049
  H      277.930      84.195     482.113
  H      275.514      78.809     484.714
  H      274.134      81.946     483.118
  H      274.546      79.891     481.203
  H      273.856      78.149     482.738
  H      271.545      80.041     483.510
  H      271.405      77.684     484.368
  H      281.002      81.698     484.268
  H      280.157      80.286     484.908
  H      272.977      77.911     485.161
  P      272.290      76.962     480.905
  C      273.697      76.138     478.912
  O      273.594      77.084     479.971
  O      271.080      76.432     480.215
  O      272.779      75.991     482.080
  H      272.380      75.104     481.977
  H      274.598      76.315     478.362
  H      272.855      76.240     478.260
  H      273.716      75.148     479.318

 6  7  8  9  10  11  12  13  14  15  25  28  32  33  34  35 0
 6-311+G(2d,p)
 ****
 36  39  40 0
 6-311+G(2d,p)
 ****
 1  2  3  4  5  16  17  18  19  20  21  22  23  24 0
 3-21G
 ****
 26  27  29  30  31  37  38  41  42  43  44  45  46  47 0
 3-21G
 ****
 48 0
 3-21G
 ****


