%nproc=1
%NoSave
%Mem=1900MB
#P OB98/GEN NMR

erre ene a

0 1
  C     -102.155      33.093     421.037
  O     -101.146      34.095     421.100
  P     -100.862      35.033     422.359
  C      -98.269      35.318     422.051
  O      -99.562      35.912     422.063
  C      -97.182      36.366     421.764
  O      -97.261      36.748     420.359
  C      -97.368      37.646     422.591
  O      -96.151      38.171     423.114
  C      -98.163      38.543     421.658
  O      -98.092      39.920     421.994
  C      -97.600      38.155     420.290
  N     -100.014      41.639     417.447
  C      -99.254      41.814     418.591
  N      -99.134      43.079     419.053
  N      -98.683      40.834     419.233
  C      -98.947      39.616     418.717
  C      -99.693      39.313     417.599
  C     -100.282      40.410     416.859
  O     -100.944      40.314     415.832
  N      -99.730      37.962     417.369
  C      -99.027      37.444     418.357
  N      -98.522      38.412     419.196
  O     -100.938      34.374     423.697
  O     -102.050      36.127     422.294
  H      -98.731      40.398     421.434
  H     -102.247      36.373     423.223
  H     -100.411      42.438     416.975
  H      -98.840      36.387     418.504
  H      -96.690      38.707     420.049
  H      -99.218      38.249     421.734
  H      -99.650      43.861     418.672
  H      -97.965      37.445     423.488
  H      -98.773      43.169     420.000
  H      -96.198      35.914     421.938
  H      -98.284      34.571     421.249
  H      -98.072      34.795     422.987
  P      -95.766      38.474     424.632
  C      -93.270      38.076     424.188
  O      -94.245      38.974     424.682
  O      -95.693      37.042     425.337
  O      -96.730      39.360     425.355
  H      -96.363      36.992     426.054
  H      -92.283      38.410     424.519
  H      -93.297      38.068     423.098
  H      -93.448      37.065     424.569
  H     -102.125      32.616     420.080
  H     -103.115      33.544     421.181
  H     -101.984      32.366     421.803

 3  4  5  6  7  8  9  10  11  12  23  26  30  31 0
 6-311+G(2d,p)
 ****
 33  35  36  37  38 0
 6-311+G(2d,p)
 ****
 1  2  13  14  15  16  17  18  19  20  21  22  24  25 0
 3-21G
 ****
 27  28  29  32  34  39  40  41  42  43  44  45  46  47  48  49 0
 3-21G
 ****


