%nproc=1
%NoSave
%Mem=1900MB
#P OB98/GEN NMR

erre ene a

0 1
  C     -105.648     277.730    -601.249
  O     -106.872     278.439    -601.210
  H     -105.864     276.666    -601.363
  H     -105.094     277.883    -600.321
  H     -105.051     278.063    -602.101
  P     -106.773     280.019    -600.935
  C     -106.191     280.736    -603.379
  O     -107.169     280.674    -602.345
  C     -106.812     281.295    -604.651
  O     -107.808     280.381    -605.176
  C     -107.544     282.627    -604.477
  O     -106.669     283.736    -604.389
  C     -108.364     282.644    -605.752
  O     -107.507     282.964    -606.868
  C     -108.841     281.184    -605.817
  N     -110.135     280.974    -605.148
  C     -110.908     279.901    -605.606
  O     -110.511     279.187    -606.530
  N     -112.141     279.685    -605.033
  C     -112.557     280.454    -604.071
  N     -113.780     280.194    -603.548
  C     -111.761     281.583    -603.546
  C     -110.575     281.780    -604.122
  O     -105.194     280.285    -600.858
  O     -107.545     280.532    -599.763
  H     -108.069     282.961    -607.666
  H     -105.019     281.257    -600.838
  H     -112.149     282.200    -602.755
  H     -109.935     282.593    -603.787
  H     -108.927     280.838    -606.857
  H     -109.158     283.386    -605.744
  H     -108.222     282.600    -603.620
  H     -106.017     281.376    -605.405
  H     -114.322     279.450    -603.971
  H     -105.815     279.723    -603.552
  H     -114.251     280.822    -602.907
  H     -105.358     281.377    -603.068
  P     -107.199     285.034    -603.605
  C     -105.633     284.714    -601.544
  O     -106.008     285.529    -602.658
  O     -108.268     284.425    -602.575
  O     -107.803     286.092    -604.475
  H     -109.004     285.046    -602.432
  H     -104.828     285.181    -601.015
  H     -105.319     283.753    -601.895
  H     -106.471     284.598    -600.889

 6  7  8  9  10  11  12  13  14  15  16  26  30  31  32  33  35 0
 6-311+G(2d,p)
 ****
 37  38 0
 6-311+G(2d,p)
 ****
 1  2  3  4  5  17  18  19  20  21  22  23  24  25 0
 3-21G
 ****
 27  28  29  34  36  39  40  41  42  43  44  45  46 0
 3-21G
 ****


