%nproc=1
%NoSave
%Mem=1900MB
#P OB98/GEN NMR

erre ene a

0 1
  C     -899.450    -468.203    -441.261
  O     -898.070    -468.486    -441.077
  H     -900.000    -469.137    -441.205
  H     -899.610    -467.752    -442.249
  H     -899.810    -467.535    -440.479
  P     -897.060    -467.241    -441.150
  C     -895.410    -468.024    -439.339
  O     -895.640    -467.854    -440.728
  C     -893.970    -468.489    -439.079
  O     -893.840    -469.875    -439.477
  C     -892.930    -467.688    -439.874
  O     -891.760    -467.488    -439.056
  C     -892.590    -468.590    -441.042
  O     -891.290    -468.336    -441.564
  C     -892.760    -469.975    -440.416
  N     -890.740    -472.827    -444.138
  C     -890.180    -472.023    -443.209
  N     -890.790    -471.315    -442.244
  C     -892.110    -471.528    -442.258
  C     -892.830    -472.331    -443.145
  C     -892.080    -473.009    -444.107
  N     -892.630    -473.814    -445.074
  N     -894.180    -472.276    -442.845
  C     -894.280    -471.462    -441.814
  N     -893.060    -470.976    -441.423
  O     -897.480    -466.016    -440.398
  O     -896.900    -467.050    -442.729
  H     -890.640    -468.510    -440.846
  H     -896.790    -467.902    -443.182
  H     -889.080    -471.913    -443.255
  H     -895.210    -471.186    -441.306
  H     -891.870    -470.316    -439.873
  H     -893.310    -468.433    -441.849
  H     -893.310    -466.712    -440.217
  H     -893.770    -468.445    -438.001
  H     -896.110    -468.772    -438.926
  H     -892.020    -474.254    -445.737
  H     -893.640    -473.968    -445.071
  H     -895.600    -467.071    -438.841
  P     -891.830    -466.418    -437.881
  C     -890.260    -467.475    -436.120
  O     -890.440    -466.454    -437.074
  O     -893.060    -466.450    -437.026
  O     -891.730    -465.029    -438.676
  H     -892.310    -464.370    -438.235
  H     -889.296    -467.373    -435.666
  H     -890.329    -468.428    -436.601
  H     -891.018    -467.399    -435.369

 6  7  8  9  10  11  12  13  14  15  25  28  32  33  34  35 0
 6-311+G(2d,p)
 ****
 36  39  40 0
 6-311+G(2d,p)
 ****
 1  2  3  4  5  16  17  18  19  20  21  22  23  24 0
 3-21G
 ****
 26  27  29  30  31  37  38  41  42  43  44  45  46  47 0
 3-21G
 ****
 48 0
 3-21G
 ****


