%nproc=1
%NoSave
%Mem=1900MB
#P OB98/GEN NMR

erre ene a

0 1
  C     -260.375    -426.377     432.609
  O     -259.122    -427.023     432.549
  H     -260.853    -426.631     433.557
  H     -261.012    -426.720     431.787
  H     -260.262    -425.290     432.555
  P     -258.075    -426.571     431.422
  C     -255.867    -426.814     432.745
  O     -256.700    -427.346     431.725
  C     -254.731    -427.790     433.084
  O     -255.310    -429.040     433.542
  C     -253.887    -428.117     431.852
  O     -252.540    -428.458     432.190
  C     -254.577    -429.348     431.281
  O     -253.722    -430.144     430.458
  C     -255.033    -430.054     432.561
  N     -256.853    -434.785     432.006
  C     -255.545    -434.352     431.974
  N     -254.595    -435.298     431.782
  N     -255.199    -433.094     432.109
  C     -256.257    -432.249     432.228
  C     -257.591    -432.561     432.244
  C     -257.966    -433.962     432.130
  O     -259.110    -434.394     432.125
  N     -258.370    -431.436     432.376
  C     -257.505    -430.440     432.428
  N     -256.204    -430.885     432.368
  O     -257.716    -425.062     431.825
  O     -258.561    -426.661     430.007
  H     -253.000    -430.479     431.023
  H     -257.376    -424.581     431.053
  H     -257.067    -435.767     431.933
  H     -257.760    -429.398     432.521
  H     -254.236    -430.697     432.950
  H     -255.409    -429.013     430.659
  H     -254.839    -436.224     431.482
  H     -253.870    -427.308     431.121
  H     -253.691    -434.964     431.451
  H     -254.133    -427.396     433.908
  H     -256.499    -426.640     433.619
  H     -255.462    -425.845     432.440
  P     -251.429    -427.310     432.162
  C     -249.920    -427.929     434.259
  O     -250.082    -427.837     432.853
  O     -251.979    -426.218     433.178
  O     -251.175    -426.738     430.801
  H     -252.190    -425.388     432.718
  H     -248.943    -428.305     434.482
  H     -250.658    -428.592     434.660
  H     -250.037    -426.959     434.696

 6  7  8  9  10  11  12  13  14  15  26  29  33  34 0
 6-311+G(2d,p)
 ****
 36  38  39  40  41 0
 6-311+G(2d,p)
 ****
 1  2  3  4  5  16  17  18  19  20  21  22  23  24  25 0
 3-21G
 ****
 27  28  30  31  32  35  37  42  43  44  45  46  47 0
 3-21G
 ****
 48  49 0
 3-21G
 ****


