%nproc=1
%NoSave
%Mem=1900MB
#P OB98/GEN NMR

erre ene a

0 1
  C     -750.284     413.623    -393.273
  O     -751.103     413.751    -394.416
  H     -750.820     414.036    -392.411
  H     -749.366     414.190    -393.417
  H     -750.043     412.572    -393.073
  P     -750.704     412.867    -395.699
  C     -749.805     414.952    -396.972
  O     -749.520     413.662    -396.449
  C     -748.814     415.315    -398.073
  O     -749.118     414.528    -399.253
  C     -748.857     416.803    -398.491
  O     -747.508     417.231    -398.799
  C     -749.655     416.766    -399.785
  O     -749.389     417.890    -400.619
  C     -749.183     415.430    -400.368
  N     -749.435     414.432    -405.285
  C     -748.338     414.709    -404.479
  N     -747.140     414.794    -405.087
  N     -748.436     414.895    -403.189
  C     -749.687     414.772    -402.705
  C     -750.847     414.505    -403.395
  C     -750.748     414.312    -404.832
  O     -751.678     414.094    -405.597
  N     -751.946     414.511    -402.553
  C     -751.438     414.804    -401.371
  N     -750.083     414.967    -401.408
  O     -751.971     413.078    -396.670
  O     -750.443     411.423    -395.428
  H     -749.621     418.689    -400.132
  H     -752.606     412.338    -396.546
  H     -749.312     414.322    -406.273
  H     -752.031     414.922    -400.465
  H     -748.181     415.489    -400.816
  H     -750.731     416.740    -399.573
  H     -746.982     414.628    -406.062
  H     -749.292     417.464    -397.741
  H     -746.320     414.959    -404.491
  H     -747.794     415.026    -397.749
  H     -749.744     415.692    -396.167
  H     -750.840     414.956    -397.368
  P     -746.754     418.101    -397.718
  C     -747.543     420.318    -398.842
  O     -747.420     419.563    -397.635
  O     -745.333     418.392    -398.404
  O     -746.579     417.417    -396.391
  H     -744.625     418.415    -397.721
  H     -748.001     421.261    -398.628
  H     -748.148     419.778    -399.540
  H     -746.572     420.480    -399.262

 6  7  8  9  10  11  12  13  14  15  26  29  33  34 0
 6-311+G(2d,p)
 ****
 36  38  39  40  41 0
 6-311+G(2d,p)
 ****
 1  2  3  4  5  16  17  18  19  20  21  22  23  24  25 0
 3-21G
 ****
 27  28  30  31  32  35  37  42  43  44  45  46  47 0
 3-21G
 ****
 48  49 0
 3-21G
 ****


