%nproc=1
%NoSave
%Mem=1900MB
#P OB98/GEN NMR

erre ene a

0 1
  C      -65.870    -185.503     130.494
  O      -66.577    -184.654     129.609
  P      -66.327    -183.071     129.602
  C      -68.827    -182.905     130.197
  O      -67.511    -182.459     130.506
  C      -69.582    -183.231     131.481
  O      -68.717    -184.023     132.336
  C      -70.002    -182.034     132.337
  O      -71.216    -181.425     131.942
  C      -70.190    -182.698     133.693
  O      -71.458    -183.380     133.727
  C      -69.041    -183.720     133.715
  N      -66.368    -183.764     138.082
  C      -67.494    -184.407     137.704
  N      -68.163    -184.328     136.527
  C      -67.514    -183.517     135.680
  C      -66.353    -182.790     135.920
  C      -65.769    -182.945     137.189
  N      -64.607    -182.304     137.561
  N      -66.001    -182.045     134.806
  C      -66.936    -182.323     133.913
  N      -67.861    -183.209     134.392
  O      -66.171    -182.470     128.247
  O      -65.035    -182.870     130.521
  H      -72.147    -182.709     133.550
  H      -64.649    -181.982     130.370
  H      -67.929    -185.077     138.446
  H      -66.972    -181.906     132.931
  H      -69.329    -184.666     134.202
  H      -70.180    -181.989     134.521
  H      -69.187    -181.296     132.409
  H      -70.459    -183.851     131.224
  H      -68.754    -183.815     129.586
  H      -64.186    -182.571     138.441
  H      -64.074    -181.827     136.849
  H      -69.353    -182.144     129.612
  P      -71.159    -179.867     131.529
  C      -73.198    -179.457     133.115
  O      -71.899    -179.079     132.711
  O      -71.652    -179.573     130.148
  O      -69.609    -179.493     131.753
  H      -69.313    -179.512     132.674
  H      -73.455    -178.914     134.034
  H      -73.247    -180.527     133.325
  H      -73.925    -179.199     132.343
  H      -66.180    -186.516     130.341
  H      -66.075    -185.216     131.504
  H      -64.820    -185.419     130.306

 3  4  5  6  7  8  9  10  11  12  22  25  29  30  31  32 0
 6-311+G(2d,p)
 ****
 33  36  37 0
 6-311+G(2d,p)
 ****
 1  2  13  14  15  16  17  18  19  20  21  23  24  26 0
 3-21G
 ****
 27  28  34  35  38  39  40  41  42  43  44  45  46  47  48 0
 3-21G
 ****


