%nproc=1
%NoSave
%Mem=1900MB
#P OB98/GEN NMR

erre ene a

0 1
  C     -688.952    -292.339    -130.994
  O     -690.358    -292.415    -131.123
  H     -688.646    -292.787    -130.046
  H     -688.492    -292.901    -131.811
  H     -688.612    -291.301    -131.043
  P     -691.233    -291.425    -130.214
  C     -692.753    -290.476    -132.094
  O     -691.703    -290.223    -131.174
  C     -692.310    -290.149    -133.520
  O     -691.170    -290.994    -133.859
  C     -693.395    -290.377    -134.587
  O     -693.300    -289.332    -135.559
  C     -692.982    -291.690    -135.229
  O     -693.461    -291.822    -136.563
  C     -691.460    -291.605    -135.124
  N     -689.711    -295.068    -138.412
  C     -689.995    -293.753    -138.549
  N     -690.405    -292.890    -137.599
  C     -690.456    -293.483    -136.400
  C     -690.195    -294.811    -136.102
  C     -689.822    -295.627    -137.185
  N     -689.598    -296.987    -137.070
  N     -690.411    -295.057    -134.760
  C     -690.821    -293.907    -134.263
  N     -690.868    -292.925    -135.215
  O     -690.122    -290.745    -129.277
  O     -692.315    -292.071    -129.416
  H     -693.096    -292.644    -136.947
  H     -689.981    -291.297    -128.485
  H     -689.883    -293.346    -139.549
  H     -691.127    -293.735    -133.239
  H     -691.017    -290.987    -135.915
  H     -693.374    -292.525    -134.635
  H     -694.416    -290.412    -134.181
  H     -691.959    -289.113    -133.545
  H     -693.613    -289.846    -131.835
  H     -689.445    -297.505    -137.918
  H     -689.786    -297.433    -136.183
  H     -693.050    -291.530    -132.021
  P     -693.881    -287.891    -135.155
  C     -692.341    -286.383    -136.623
  O     -692.710    -286.810    -135.316
  O     -694.067    -288.002    -133.565
  O     -695.165    -287.540    -135.836
  H     -694.825    -287.471    -133.277
  H     -691.550    -285.665    -136.554
  H     -693.186    -285.937    -137.104
  H     -692.009    -287.225    -137.193

 6  7  8  9  10  11  12  13  14  15  25  28  32  33  34  35 0
 6-311+G(2d,p)
 ****
 36  39  40 0
 6-311+G(2d,p)
 ****
 1  2  3  4  5  16  17  18  19  20  21  22  23  24 0
 3-21G
 ****
 26  27  29  30  31  37  38  41  42  43  44  45  46  47 0
 3-21G
 ****
 48 0
 3-21G
 ****


