%nproc=1
%NoSave
%Mem=1900MB
#P OB98/GEN NMR

erre ene a

0 1
  C     -299.936      50.615     -99.772
  O     -299.736      49.847     -98.597
  P     -301.033      49.221     -97.885
  C     -301.528      51.550     -96.769
  O     -301.991      50.464     -97.554
  C     -302.689      52.161     -95.977
  O     -303.700      52.652     -96.888
  C     -303.415      51.187     -95.061
  O     -302.682      50.937     -93.869
  C     -304.739      51.909     -94.850
  O     -304.596      52.935     -93.855
  C     -304.980      52.542     -96.237
  N     -305.927      51.795     -97.058
  C     -307.256      52.211     -96.996
  O     -307.634      53.152     -96.303
  N     -308.142      51.486     -97.753
  C     -307.851      50.378     -98.494
  O     -308.692      49.743     -99.115
  C     -306.438      49.966     -98.493
  C     -305.560      50.680     -97.789
  O     -300.414      48.792     -96.471
  O     -301.656      48.115     -98.670
  H     -299.650      49.342     -96.229
  H     -305.403      53.486     -93.907
  H     -309.109      51.784     -97.745
  H     -306.171      49.086     -99.062
  H     -304.516      50.387     -97.766
  H     -305.355      53.567     -96.124
  H     -305.541      51.237     -94.517
  H     -303.593      50.242     -95.586
  H     -302.305      53.016     -95.404
  H     -301.095      52.308     -97.425
  H     -300.749      51.195     -96.087
  P     -302.958      49.529     -93.140
  C     -304.957      50.356     -91.673
  O     -304.505      49.533     -92.727
  O     -302.174      49.737     -91.759
  O     -302.507      48.344     -93.931
  H     -302.310      50.624     -91.381
  H     -306.035      50.493     -91.776
  H     -304.473      51.334     -91.692
  H     -304.753      49.867     -90.717
  H     -298.992      50.965    -100.134
  H     -300.565      51.451     -99.549
  H     -300.402      50.008    -100.520

 3  4  5  6  7  8  9  10  11  12  13  24  28  29  30  31  32 0
 6-311+G(2d,p)
 ****
 33  34 0
 6-311+G(2d,p)
 ****
 1  2  14  15  16  17  18  19  20  21  22  23  25  26  27 0
 3-21G
 ****
 35  36  37  38  39  40  41  42  43  44  45 0
 3-21G
 ****


