%nproc=1
%NoSave
%Mem=1900MB
#P OB98/GEN NMR

erre ene a

0 1
  C      177.874     579.937    -892.600
  O      176.626     580.406    -893.110
  P      176.287     581.964    -892.920
  C      176.703     582.497    -895.450
  O      177.093     582.731    -894.090
  C      175.782     583.622    -895.920
  O      176.364     584.905    -895.590
  C      175.562     583.651    -897.430
  O      174.566     582.724    -897.830
  C      175.094     585.085    -897.620
  O      173.678     585.174    -897.300
  C      175.912     585.863    -896.580
  N      177.834     590.342    -897.980
  C      176.595     590.049    -897.430
  N      175.767     591.079    -897.190
  N      176.209     588.826    -897.130
  C      177.150     587.882    -897.400
  C      178.402     588.067    -897.940
  C      178.802     589.400    -898.310
  O      179.857     589.732    -898.870
  N      179.079     586.871    -898.040
  C      178.255     585.985    -897.500
  N      177.066     586.555    -897.130
  O      177.099     582.359    -891.590
  O      174.840     582.294    -892.800
  H      173.225     584.521    -897.870
  H      176.678     583.127    -891.170
  H      178.068     591.300    -898.170
  H      178.495     584.925    -897.390
  H      175.297     586.599    -896.040
  H      175.215     585.445    -898.650
  H      176.067     592.051    -897.270
  H      176.507     583.510    -897.960
  H      174.877     590.878    -896.740
  H      174.821     583.541    -895.390
  H      176.157     581.546    -895.490
  H      177.589     582.443    -896.060
  P      175.107     581.340    -898.490
  C      174.726     579.873    -896.360
  O      175.662     580.481    -897.250
  O      176.431     581.799    -899.260
  O      174.129     580.673    -899.380
  H      176.623     581.185    -900.000
  H      173.838     579.535    -896.900
  H      174.440     580.615    -895.590
  H      175.209     579.026    -895.880
  H      177.968     578.889    -892.794
  H      177.915     580.109    -891.545
  H      178.675     580.461    -893.079

 3  4  5  6  7  8  9  10  11  12  23  26  30  31  33  0
 6-311+G(2d,p)
 ****
 35  36  37  38 0
 6-311+G(2d,p)
 ****
 1  2  13  14  15  16  17  18  19  20  21  22  24  25  27  28  29 0
 3-21G
 ****
 32  34  39  40  41  42  43  44  45  46  47  48  49 0
 3-21G
 ****


