%nproc=1
%NoSave
%Mem=1900MB
#P OB98/GEN NMR

erre ene a

0 1
  C      560.335      -2.064     858.363
  O      559.624      -2.305     857.162
  H      560.557      -0.988     858.432
  H      561.283      -2.616     858.357
  H      559.736      -2.357     859.228
  P      559.047      -3.788     856.949
  C      561.346      -4.647     856.014
  O      559.947      -4.482     855.812
  C      561.774      -6.048     855.587
  O      561.094      -7.060     856.373
  C      561.412      -6.394     854.153
  O      562.202      -5.703     853.208
  C      561.642      -7.902     854.168
  O      563.037      -8.209     854.058
  C      561.098      -8.279     855.576
  N      559.780      -8.894     855.519
  C      559.674     -10.013     854.668
  O      560.649     -10.419     854.053
  N      558.448     -10.608     854.548
  C      557.437     -10.156     855.213
  N      556.233     -10.797     855.041
  C      557.513      -9.009     856.132
  C      558.706      -8.428     856.233
  O      557.662      -3.516     856.190
  O      558.922      -4.606     858.195
  H      563.314      -7.906     853.168
  H      557.761      -2.969     855.395
  H      556.633      -8.675     856.685
  H      558.844      -7.571     856.875
  H      561.793      -8.975     856.068
  H      561.144      -8.403     853.335
  H      560.345      -6.222     853.978
  H      562.853      -6.146     855.768
  H      556.216     -11.576     854.390
  H      561.622      -4.450     857.053
  H      555.372     -10.519     855.483
  H      561.858      -3.896     855.390
  P      561.536      -4.653     852.197
  C      561.337      -6.500     850.403
  O      561.842      -5.194     850.718
  O      561.907      -3.217     852.427
  O      559.964      -4.947     852.343
  H      559.689      -5.855     852.117
  H      561.601      -6.751     849.397
  H      560.272      -6.504     850.504
  H      561.762      -7.218     851.073

 6  7  8  9  10  11  12  13  14  15  16  26  30  31  32  33  35 0
 6-311+G(2d,p)
 ****
 37  38 0
 6-311+G(2d,p)
 ****
 1  2  3  4  5  17  18  19  20  21  22  23  24  25 0
 3-21G
 ****
 27  28  29  34  36  39  40  41  42  43  44  45  46 0
 3-21G
 ****


