%nproc=1
%NoSave
%Mem=1900MB
#P OB98/GEN NMR

erre ene a

0 1
  C      624.738     389.239    -576.430
  O      625.291     389.108    -577.724
  H      623.802     388.673    -576.389
  H      624.523     390.290    -576.218
  H      625.428     388.842    -575.681
  P      626.696     389.840    -577.977
  C      627.599     387.878    -579.438
  O      627.253     389.256    -579.362
  C      626.339     387.029    -579.662
  O      625.702     387.456    -580.900
  C      626.626     385.523    -579.792
  O      625.491     384.798    -579.301
  C      626.712     385.360    -581.303
  O      626.593     384.004    -581.658
  C      625.567     386.280    -581.724
  N      624.678     384.590    -586.454
  C      624.452     384.042    -585.239
  N      624.711     384.560    -584.022
  C      625.236     385.794    -584.140
  C      625.523     386.484    -585.302
  C      625.226     385.830    -586.510
  N      625.475     386.378    -587.747
  N      626.078     387.716    -585.012
  C      626.118     387.774    -583.696
  N      625.617     386.631    -583.124
  O      627.652     389.187    -576.874
  O      626.673     391.330    -577.889
  H      626.768     383.874    -582.610
  H      627.654     389.734    -576.065
  H      624.006     383.048    -585.252
  H      626.505     388.595    -583.106
  H      624.584     385.840    -581.528
  H      627.673     385.722    -581.687
  H      627.523     385.205    -579.263
  H      625.625     387.232    -578.854
  H      628.086     387.590    -578.501
  H      628.287     387.723    -580.272
  H      625.258     385.830    -588.566
  H      625.916     387.286    -587.807
  P      625.435     384.393    -577.746
  C      622.992     383.570    -577.292
  O      624.357     383.231    -577.510
  O      624.702     385.665    -577.100
  O      626.762     384.176    -577.092
  H      625.170     385.944    -576.296
  H      622.420     382.676    -577.154
  H      622.618     384.106    -578.139
  H      622.912     384.183    -576.419

 6  7  8  9  10  11  12  13  14  15  25  28  32  33  34  35 0
 6-311+G(2d,p)
 ****
 36  37  40 0
 6-311+G(2d,p)
 ****
 1  2  3  4  5  16  17  18  19  20  21  22  23  24 0
 3-21G
 ****
 26  27  29  30  31  38  39 41  42  43  44  45  46  47  48 0
 3-21G
 ****


