%nproc=1
%NoSave
%Mem=1900MB
#P OB98/GEN NMR

erre ene a

0 1
  C     -227.421    -894.030    -216.906
  O     -226.117    -893.510    -217.096
  H     -227.577    -894.850    -217.630
  H     -228.172    -893.260    -217.084
  H     -227.533    -894.440    -215.893
  P     -225.662    -892.260    -216.213
  C     -224.081    -893.610    -214.678
  O     -225.269    -892.840    -214.757
  C     -224.103    -894.490    -213.424
  O     -224.366    -893.630    -212.284
  C     -225.207    -895.560    -213.485
  O     -224.730    -896.880    -213.242
  C     -226.277    -895.010    -212.531
  O     -227.103    -896.000    -211.956
  C     -225.452    -894.190    -211.527
  N     -226.225    -893.130    -210.868
  C     -226.730    -893.400    -209.615
  O     -226.567    -894.450    -208.993
  N     -227.460    -892.390    -209.029
  C     -227.714    -891.170    -209.589
  O     -228.368    -890.300    -209.023
  C     -227.157    -890.950    -210.935
  C     -226.457    -891.920    -211.511
  O     -226.595    -891.100    -216.189
  O     -224.229    -891.860    -216.835
  H     -227.471    -896.550    -212.679
  H     -224.331    -891.070    -217.401
  H     -227.823    -892.570    -208.121
  H     -227.369    -890.020    -211.411
  H     -226.055    -891.800    -212.511
  H     -225.042    -894.830    -210.758
  H     -226.925    -894.340    -213.105
  H     -225.639    -895.630    -214.495
  H     -223.118    -894.950    -213.286
  H     -223.230    -892.910    -214.629
  H     -223.996    -894.230    -215.576
  P     -225.171    -898.180    -214.063
  C     -222.671    -898.760    -214.597
  O     -224.000    -898.550    -215.077
  O     -226.554    -898.160    -214.616
  O     -225.095    -899.360    -212.948
  H     -225.819    -900.000    -213.189
  H     -222.028    -898.997    -215.419
  H     -222.668    -899.569    -213.897
  H     -222.321    -897.871    -214.116

 6  7  8  9  10  11  12  13  14  15  16  26  31  32  33  34  35 0
 6-311+G(2d,p)
 ****
 36  37 0
 6-311+G(2d,p)
 ****
 1  2  3  4  5  17  18  19  20  21  22  23  24  25 0
 3-21G
 ****
 27  28  29  30  38  39  40  41  42  43  44  45 0
 3-21G
 ****


