%nproc=1
%NoSave
%Mem=1900MB
#P OB98/GEN NMR

erre ene a

0 1
  C     -331.769     340.416     273.460
  O     -331.546     341.798     273.803
  P     -330.462     342.229     274.903
  C     -332.236     342.641     276.718
  O     -331.164     343.208     275.971
  C     -331.965     342.709     278.239
  O     -330.956     341.782     278.631
  C     -331.496     344.092     278.706
  O     -332.590     344.984     278.824
  C     -330.824     343.708     280.035
  O     -331.807     343.583     281.082
  C     -330.193     342.363     279.712
  N     -325.554     340.334     280.436
  C     -326.776     340.001     280.919
  N     -327.955     340.583     280.678
  C     -327.820     341.617     279.830
  C     -326.639     342.078     279.254
  C     -325.465     341.382     279.593
  N     -324.216     341.730     279.110
  N     -326.887     343.174     278.437
  C     -328.185     343.367     278.510
  N     -328.794     342.450     279.341
  O     -329.186     342.769     274.315
  O     -330.164     340.900     275.745
  H     -332.246     344.455     281.184
  H     -329.263     340.920     276.106
  H     -326.797     339.130     281.595
  H     -328.732     344.134     277.989
  H     -330.272     341.662     280.540
  H     -330.103     344.469     280.373
  H     -330.738     344.479     278.019
  H     -332.893     342.427     278.736
  H     -332.345     341.581     276.432
  H     -323.430     341.202     279.420
  H     -324.137     342.537     278.508
  H     -333.165     343.166     276.479
  P     -332.852     346.078     277.685
  C     -331.760     347.902     279.107
  O     -332.920     347.515     278.415
  O     -333.982     345.760     276.758
  O     -331.444     346.132     276.879
  H     -331.619     346.372     275.958
  H     -331.759     347.417     280.099
  H     -331.781     348.980     279.243
  H     -330.839     347.632     278.564
  H     -332.529     340.353     272.710
  H     -332.081     339.878     274.331
  H     -330.862     339.991     273.085

 3  4  5  6  7  8  9  10  11  12  22  25  29  30  31  32 0
 6-311+G(2d,p)
 ****
 33  36  37 0
 6-311+G(2d,p)
 ****
 1  2  13  14  15  16  17  18  19  20  21  23  24  26 0
 3-21G
 ****
 27  28  34  35  38  39  40  41  42  43  44  45  46  47  48 0
 3-21G
 ****


