%nproc=1
%NoSave
%Mem=1900MB
#P OB98/GEN NMR

erre ene a

0 1
  C      208.179     172.767    -312.579
  O      208.281     171.806    -311.525
  P      209.706     171.524    -310.853
  C      210.095     170.678    -308.438
  O      209.545     170.399    -309.722
  C      209.159     170.158    -307.342
  O      208.033     171.046    -307.139
  C      208.533     168.813    -307.688
  O      209.395     167.693    -307.704
  C      207.342     168.759    -306.746
  O      207.719     168.308    -305.447
  C      206.914     170.246    -306.702
  N      205.723     170.515    -307.510
  C      204.610     169.726    -307.235
  O      204.611     168.822    -306.403
  N      203.494     169.990    -307.982
  C      203.397     170.918    -308.977
  O      202.378     171.099    -309.631
  C      204.614     171.705    -309.237
  C      205.703     171.470    -308.503
  O      210.481     172.730    -310.445
  O      210.490     170.727    -312.013
  H      208.622     168.636    -305.274
  H      211.410     171.055    -312.028
  H      202.676     169.435    -307.792
  H      204.575     172.447    -310.023
  H      206.609     172.040    -308.679
  H      206.695     170.550    -305.672
  H      206.569     168.074    -307.110
  H      208.126     168.884    -308.707
  H      209.715     170.112    -306.405
  H      210.246     171.754    -308.327
  H      211.087     170.218    -308.368
  P      209.966     167.045    -309.055
  C      212.027     165.637    -309.753
  O      211.370     166.345    -308.726
  O      209.886     167.864    -310.299
  O      209.001     165.768    -309.223
  H      208.872     165.602    -310.175
  H      212.953     165.217    -309.348
  H      212.279     166.303    -310.581
  H      211.400     164.815    -310.111
  H      207.163     172.828    -312.909
  H      208.802     172.468    -313.396
  H      208.496     173.724    -312.221

 3  4  5  6  7  8  9  10  11  12  13  23  28  29  30  31  32 0
 6-311+G(2d,p)
 ****
 33  34 0
 6-311+G(2d,p)
 ****
 1  2  14  15  16  17  18  19  20  21  22  24  25  26  27 0
 3-21G
 ****
 35  36  37  38  39  40  41  42  43  44  45 0
 3-21G
 ****


