%nproc=1
%NoSave
%Mem=1900MB
#P OB98/GEN NMR

erre ene a

0 1
  C      677.194     525.190     926.365
  O      677.341     526.370     927.151
  P      678.384     527.477     926.590
  C      680.602     526.379     927.450
  O      679.654     527.431     927.566
  C      681.959     526.830     927.958
  O      682.407     528.006     927.205
  C      681.970     527.255     929.449
  O      682.089     526.122     930.269
  C      683.181     528.167     929.483
  O      684.406     527.424     929.575
  C      683.088     528.916     928.126
  N      683.629     533.925     928.549
  C      684.573     532.930     928.697
  N      685.863     533.309     928.931
  N      684.280     531.649     928.596
  C      682.974     531.395     928.374
  C      681.934     532.318     928.226
  C      682.283     533.719     928.279
  O      681.507     534.659     928.046
  N      680.745     531.708     928.012
  C      681.036     530.414     928.002
  N      682.380     530.163     928.191
  O      677.656     528.862     926.949
  O      678.705     527.351     925.119
  H      684.419     526.713     928.906
  H      677.187     529.217     926.149
  H      683.920     534.896     928.593
  H      680.319     529.626     927.836
  H      684.076     529.103     927.711
  H      683.174     528.856     930.363
  H      686.129     534.265     929.046
  H      681.068     527.820     929.694
  H      686.552     532.574     929.029
  H      682.691     526.036     927.793
  H      680.687     526.078     926.413
  H      680.249     525.498     928.044
  P      680.784     525.631     931.075
  C      680.758     526.932     933.310
  O      681.130     525.746     932.644
  O      680.759     524.066     930.802
  O      679.525     526.271     930.640
  H      679.809     523.742     930.739
  H      680.547     526.682     934.377
  H      679.838     527.399     932.897
  H      681.571     527.647     933.293
  H      676.485     524.537     926.830
  H      678.139     524.693     926.287
  H      676.848     525.453     925.387

 3  4  5  6  7  8  9  10  11  12  23  26  30  31 0
 6-311+G(2d,p)
 ****
 33  35  36  37  38 0
 6-311+G(2d,p)
 ****
 1  2  13  14  15  16  17  18  19  20  21  22  24  25 0
 3-21G
 ****
 27  28  29  32  34  39  40  41  42  43  44  45  46  47  48  49 0
 3-21G
 ****


