%nproc=1
%NoSave
%Mem=1900MB
#P OB98/GEN NMR

erre ene a

0 1
  C     1297.390    1479.836    -477.506
  O     1296.386    1479.391    -476.620
  H     1297.645    1480.871    -477.253
  H     1297.021    1479.804    -478.532
  H     1298.285    1479.217    -477.420
  P     1295.870    1477.877    -476.800
  C     1296.885    1477.063    -474.536
  O     1296.911    1476.980    -475.965
  C     1297.393    1475.746    -473.937
  O     1296.530    1474.662    -474.328
  C     1298.853    1475.402    -474.365
  O     1299.572    1474.927    -473.216
  C     1298.653    1474.283    -475.371
  O     1299.790    1473.433    -475.457
  C     1297.355    1473.615    -474.879
  N     1296.648    1472.930    -475.964
  C     1295.812    1471.839    -475.570
  O     1295.717    1471.521    -474.383
  N     1295.156    1471.136    -476.554
  C     1295.343    1471.434    -477.792
  N     1294.681    1470.675    -478.712
  C     1296.233    1472.527    -478.239
  C     1296.841    1473.225    -477.287
  O     1296.214    1477.549    -478.318
  O     1294.432    1477.646    -476.439
  H     1299.564    1472.710    -476.072
  H     1295.768    1476.732    -478.631
  H     1296.377    1472.727    -479.308
  H     1297.524    1474.026    -477.504
  H     1297.572    1472.886    -474.087
  H     1298.482    1474.730    -476.375
  H     1299.358    1476.230    -474.791
  H     1297.315    1475.821    -472.831
  H     1294.069    1469.943    -478.359
  H     1295.847    1477.228    -474.210
  H     1294.776    1470.801    -479.718
  H     1297.508    1477.893    -474.205
  P     1300.870    1475.779    -472.829
  C     1300.148    1475.981    -470.327
  O     1300.491    1476.667    -471.529
  O     1300.966    1476.859    -473.996
  O     1302.090    1474.965    -472.687
  H     1301.625    1476.579    -474.648
  H     1299.924    1476.694    -469.561
  H     1300.971    1475.371    -470.017
  H     1299.292    1475.363    -470.501

 6  7  8  9  10  11  12  13  14  15  16  26  30  31  32  33  35 0
 6-311+G(2d,p)
 ****
 37  38 0
 6-311+G(2d,p)
 ****
 1  2  3  4  5  17  18  19  20  21  22  23  24  25 0
 3-21G
 ****
 27  28  29  34  36  39  40  41  42  43  44  45  46 0
 3-21G
 ****


