%nproc=1
%NoSave
%Mem=1900MB
#P OB98/GEN NMR

erre ene a

0 1
  C       91.735    -228.238    -291.178
  O       92.320    -229.290    -291.964
  P       91.791    -229.547    -293.464
  C       92.899    -230.385    -295.685
  O       92.900    -230.387    -294.262
  C       94.284    -230.755    -296.221
  O       95.156    -229.597    -296.195
  C       95.017    -231.815    -295.407
  O       94.517    -233.116    -295.661
  C       96.449    -231.611    -295.869
  O       96.693    -232.294    -297.110
  C       96.507    -230.080    -296.067
  N       97.225    -229.394    -294.994
  C       97.161    -228.009    -294.993
  O       96.595    -227.353    -295.864
  N       97.812    -227.380    -293.957
  C       98.563    -227.998    -292.982
  O       99.132    -227.382    -292.100
  C       98.655    -229.468    -293.092
  C       97.995    -230.087    -294.077
  O       91.934    -228.090    -294.118
  O       90.385    -230.039    -293.575
  H       95.988    -231.999    -297.728
  H       91.281    -227.991    -294.828
  H       97.757    -226.385    -293.917
  H       99.257    -229.989    -292.360
  H       98.059    -231.170    -294.164
  H       97.005    -229.840    -297.022
  H       97.189    -231.991    -295.144
  H       94.943    -231.581    -294.344
  H       94.166    -231.075    -297.264
  H       92.623    -229.385    -296.042
  H       92.151    -231.107    -296.036
  P       93.626    -233.784    -294.505
  C       91.572    -235.388    -294.743
  O       92.838    -234.986    -295.223
  O       92.522    -232.649    -294.271
  O       94.416    -234.155    -293.291
  H       92.307    -232.169    -295.095
  H       91.011    -234.553    -294.335
  H       91.713    -236.155    -293.959
  H       91.006    -235.837    -295.577
  H       92.202    -228.209    -290.216
  H       90.687    -228.421    -291.060
  H       91.880    -227.300    -291.673

 3  4  5  6  7  8  9  10  11  12  13  23  28  29  30  31  32 0
 6-311+G(2d,p)
 ****
 33  34 0
 6-311+G(2d,p)
 ****
 1  2  14  15  16  17  18  19  20  21  22  24  25  26 0
 3-21G
 ****
 27  35  36  37  38  39  40  41  42  43  44  45 0
 3-21G
 ****


