%nproc=1
%NoSave
%Mem=1900MB
#P OB98/GEN NMR

erre ene a

0 1
  C      203.978    -145.978     475.095
  O      204.835    -147.094     474.977
  H      204.454    -145.117     474.616
  H      203.797    -145.740     476.148
  H      203.025    -146.179     474.592
  P      204.358    -148.440     475.719
  C      206.327    -148.061     477.384
  O      204.934    -148.280     477.210
  C      206.730    -148.421     478.814
  O      208.144    -148.225     479.014
  C      206.039    -147.579     479.889
  O      204.714    -148.000     480.143
  C      206.959    -147.845     481.069
  O      206.692    -149.158     481.598
  C      208.347    -147.788     480.393
  N      208.951    -146.458     480.429
  C      209.947    -146.254     481.391
  O      210.271    -147.150     482.168
  N      210.532    -145.007     481.480
  C      210.168    -144.062     480.676
  N      210.773    -142.843     480.816
  C      209.143    -144.242     479.638
  C      208.576    -145.448     479.570
  O      205.302    -149.571     475.096
  O      202.898    -148.747     475.639
  H      205.733    -149.196     481.779
  H      205.170    -150.423     475.578
  H      208.858    -143.420     478.992
  H      207.810    -145.658     478.830
  H      209.036    -148.505     480.855
  H      206.816    -147.133     481.886
  H      206.083    -146.508     479.644
  H      206.525    -149.495     478.961
  H      211.428    -142.730     481.576
  H      206.542    -147.006     477.188
  H      210.429    -142.008     480.365
  H      206.899    -148.679     476.681
  P      203.539    -146.916     479.924
  C      203.845    -146.275     482.429
  O      203.695    -145.811     481.087
  O      202.226    -147.724     480.354
  O      203.438    -146.363     478.533
  H      201.468    -147.494     479.769
  H      203.937    -145.437     483.088
  H      204.723    -146.883     482.500
  H      202.988    -146.853     482.705

 6  7  8  9  10  11  12  13  14  15  16  26  30  31  32  33  35 0
 6-311+G(2d,p)
 ****
 37  38 0
 6-311+G(2d,p)
 ****
 1  2  3  4  5  17  18  19  20  21  22  23  24  25 0
 3-21G
 ****
 27  28  29  34  36  39  40  41  42  43  44  45  46 0
 3-21G
 ****


