%nproc=1
%NoSave
%Mem=1900MB
#P OB98/GEN NMR

erre ene a

0 1
  C     -197.567     -70.355    -548.318
  O     -196.927     -71.489    -547.727
  P     -195.341     -71.716    -547.786
  C     -195.098     -71.167    -545.285
  O     -194.652     -70.871    -546.610
  C     -194.434     -70.238    -544.238
  O     -194.711     -68.845    -544.554
  C     -194.920     -70.454    -542.808
  O     -194.279     -71.578    -542.235
  C     -194.531     -69.111    -542.173
  O     -193.147     -69.084    -541.821
  C     -194.835     -68.121    -543.313
  N     -197.314     -63.906    -541.812
  C     -196.006     -64.224    -541.810
  N     -195.421     -65.383    -542.232
  C     -196.350     -66.242    -542.699
  C     -197.716     -66.052    -542.740
  C     -198.212     -64.825    -542.271
  N     -199.546     -64.512    -542.263
  N     -198.338     -67.181    -543.274
  C     -197.352     -68.006    -543.545
  N     -196.121     -67.484    -543.214
  O     -194.733     -71.477    -549.139
  O     -195.123     -73.239    -547.333
  H     -192.982     -68.243    -541.365
  H     -194.316     -73.594    -547.736
  H     -195.334     -63.460    -541.439
  H     -197.489     -69.000    -543.974
  H     -194.078     -67.321    -543.343
  H     -195.106     -68.900    -541.265
  H     -196.014     -70.560    -542.794
  H     -193.351     -70.378    -544.314
  H     -194.836     -72.210    -545.050
  H     -199.829     -63.621    -541.873
  H     -200.231     -65.204    -542.553
  H     -196.188     -71.052    -545.245
  P     -195.038     -73.001    -542.198
  C     -193.462     -74.011    -543.964
  O     -194.789     -73.694    -543.635
  O     -196.472     -72.956    -541.754
  O     -194.153     -73.886    -541.225
  H     -194.717     -74.539    -540.780
  H     -192.937     -73.110    -544.296
  H     -193.450     -74.761    -544.756
  H     -192.933     -74.413    -543.085
  H     -198.623     -70.416    -548.154
  H     -197.370     -70.342    -549.370
  H     -197.188     -69.459    -547.873

 3  4  5  6  7  8  9  10  11  12  22  25  29  30  31  32 0
 6-311+G(2d,p)
 ****
 33  36  37 0
 6-311+G(2d,p)
 ****
 1  2  13  14  15  16  17  18  19  20  21  23  24  26 0
 3-21G
 ****
 27  28  34  35  38  39  40  41  42  43  44  45  46  47  48 0
 3-21G
 ****


