%nproc=1
%NoSave
%Mem=1900MB
#P OB98/GEN NMR

erre ene a

0 1
  C      244.233      48.780     214.275
  O      244.152      50.029     214.931
  H      245.197      48.695     213.768
  H      244.159      47.984     215.021
  H      243.419      48.664     213.554
  P      243.938      51.327     214.014
  C      242.629      53.536     214.403
  O      243.380      52.481     214.985
  C      241.631      54.102     215.411
  O      240.689      53.050     215.769
  C      242.270      54.622     216.708
  O      241.574      55.807     217.112
  C      241.981      53.515     217.707
  O      241.955      53.981     219.050
  C      240.633      53.006     217.206
  N      238.066      50.303     220.663
  C      237.934      51.574     220.234
  N      238.628      52.204     219.263
  C      239.492      51.359     218.674
  C      239.734      50.035     218.998
  C      238.983      49.508     220.063
  N      239.159      48.234     220.554
  N      240.740      49.521     218.200
  C      241.111      50.524     217.429
  N      240.387      51.655     217.681
  O      242.657      50.921     213.140
  O      245.098      51.711     213.159
  H      241.154      54.526     219.181
  H      242.944      50.445     212.340
  H      237.178      52.170     220.739
  H      241.910      50.495     216.704
  H      239.795      53.630     217.540
  H      242.751      52.738     217.624
  H      243.340      54.836     216.618
  H      241.053      54.894     214.921
  H      242.079      53.146     213.540
  H      238.652      47.979     221.388
  H      239.911      47.668     220.190
  H      243.311      54.321     214.061
  P      242.266      57.216     216.791
  C      241.520      59.701     216.575
  O      241.159      58.368     216.916
  O      242.544      57.139     215.215
  O      243.524      57.461     217.560
  H      243.354      57.627     214.992
  H      240.676      60.345     216.711
  H      241.833      59.735     215.552
  H      242.322      60.026     217.205

 6  7  8  9  10  11  12  13  14  15  25  28  32  33  34  35 0
 6-311+G(2d,p)
 ****
 36  39  40 0
 6-311+G(2d,p)
 ****
 1  2  3  4  5  16  17  18  19  20  21  22  23  24 0
 3-21G
 ****
 26  27  29  30  31  37  38  41  42  43  44  45  46  47 0
 3-21G
 ****
 48 0
 3-21G
 ****


