%nproc=1
%NoSave
%Mem=1900MB
#P OB98/GEN NMR

erre ene a

0 1
  C      811.879     261.648    1448.240
  O      811.314     261.046    1449.431
  P      809.721     260.850    1449.640
  C      809.931     262.547    1451.574
  O      809.321     261.333    1451.094
  C      809.471     262.905    1452.980
  O      808.100     263.381    1452.964
  C      809.496     261.740    1453.980
  O      810.812     261.429    1454.408
  C      808.553     262.278    1455.070
  O      809.273     263.141    1455.980
  C      807.525     263.065    1454.245
  N      806.257     262.331    1454.090
  C      805.349     262.460    1455.133
  O      805.621     263.104    1456.144
  N      804.117     261.797    1455.003
  C      803.888     261.047    1453.962
  N      802.667     260.464    1453.896
  C      804.873     260.825    1452.892
  C      806.020     261.508    1452.995
  O      809.233     259.461    1449.291
  O      809.032     261.932    1448.674
  H      809.700     263.820    1455.424
  H      808.187     261.583    1448.359
  H      804.640     260.181    1452.032
  H      806.812     261.400    1452.249
  H      807.295     264.021    1454.732
  H      808.118     261.483    1455.678
  H      809.028     260.867    1453.510
  H      810.126     263.716    1453.355
  H      802.005     260.634    1454.653
  H      809.668     263.366    1450.876
  H      802.383     259.868    1453.119
  H      811.027     262.421    1451.554
  P      811.669     260.346    1453.628
  C      812.107     259.253    1455.909
  O      812.675     259.650    1454.683
  O      812.323     260.792    1452.347
  O      810.600     259.138    1453.343
  H      810.843     258.702    1452.510
  H      812.758     258.520    1456.383
  H      811.107     258.873    1455.826
  H      812.081     260.160    1456.589
  H      812.945     261.672    1448.324
  H      811.507     262.646    1448.134
  H      811.602     261.071    1447.383

 3  4  5  6  7  8  9  10  11  12  13  23  27  28  29  30  32 0
 6-311+G(2d,p)
 ****
 34  35 0
 6-311+G(2d,p)
 ****
 1  2  14  15  16  17  18  19  20  21  22  24  25  26 0
 3-21G
 ****
 31  33  36  37  38  39  40  41  42  43  44  45  46 0
 3-21G
 ****


