%nproc=1
%NoSave
%Mem=1900MB
#P OB98/GEN NMR

erre ene a

0 1
  C     -196.419     552.110     398.240
  O     -197.234     553.275     398.220
  P     -197.418     554.073     399.602
  C     -197.409     556.510     398.707
  O     -198.185     555.429     399.220
  C     -198.322     557.598     398.143
  O     -198.958     557.136     396.933
  C     -199.453     558.019     399.067
  O     -199.025     558.955     400.042
  C     -200.401     558.680     398.080
  O     -199.944     560.010     397.773
  C     -200.260     557.773     396.848
  N     -204.833     556.616     394.870
  C     -204.094     557.745     394.826
  N     -202.888     557.979     395.393
  C     -202.471     556.907     396.086
  C     -203.133     555.701     396.247
  C     -204.367     555.566     395.590
  N     -205.101     554.402     395.607
  N     -202.389     554.840     397.028
  C     -201.300     555.512     397.322
  N     -201.293     556.759     396.774
  O     -195.932     554.565     399.936
  O     -198.010     553.276     400.716
  H     -200.072     560.545     398.579
  H     -195.845     554.739     400.893
  H     -204.523     558.570     394.264
  H     -200.480     555.128     397.925
  H     -200.285     558.343     395.911
  H     -201.417     558.770     398.466
  H     -199.940     557.149     399.521
  H     -197.696     558.460     397.883
  H     -196.761     556.139     397.908
  H     -205.877     554.327     394.969
  H     -204.660     553.564     395.972
  H     -196.785     556.915     399.507
  P     -200.036     559.247     401.257
  C     -198.274     558.927     403.143
  O     -199.122     559.818     402.440
  O     -200.438     557.783     401.750
  O     -201.224     560.073     400.877
  H     -201.312     557.799     402.189
  H     -197.520     559.512     403.672
  H     -197.767     558.250     402.455
  H     -198.856     558.357     403.865
  H     -196.384     551.682     397.260
  H     -196.830     551.399     398.925
  H     -195.429     552.373     398.550

 3  4  5  6  7  8  9  10  11  12  22  25  29  30  31  32 0
 6-311+G(2d,p)
 ****
 33  36  37 0
 6-311+G(2d,p)
 ****
 1  2  13  14  15  16  17  18  19  20  21  23  24  26 0
 3-21G
 ****
 27  28  34  35  38  39  40  41  42  43  44  45  46  47  48 0
 3-21G
 ****


