%nproc=1
%NoSave
%Mem=1900MB
#P OB98/GEN NMR

erre ene a

0 1
  C      149.611    -261.771      62.728
  O      150.673    -261.433      63.612
  P      150.369    -260.928      65.097
  C      152.710    -259.786      65.418
  O      151.304    -259.671      65.402
  C      153.319    -258.395      65.651
  O      153.224    -257.602      64.454
  C      152.600    -257.645      66.774
  O      153.272    -257.831      68.009
  C      152.624    -256.210      66.283
  O      153.890    -255.600      66.575
  C      152.457    -256.402      64.756
  N      151.096    -256.585      64.222
  C      150.799    -256.175      62.923
  O      151.624    -255.681      62.162
  N      149.487    -256.326      62.531
  C      148.490    -256.882      63.281
  O      147.293    -256.793      63.021
  C      148.922    -257.537      64.519
  C      150.173    -257.344      64.937
  O      150.992    -262.083      66.010
  O      148.927    -260.684      65.414
  H      153.883    -254.717      66.162
  H      150.298    -262.698      66.308
  H      149.238    -255.901      61.645
  H      148.189    -258.111      65.079
  H      150.505    -257.789      65.871
  H      152.905    -255.570      64.205
  H      151.869    -255.608      66.788
  H      151.556    -257.985      66.839
  H      154.387    -258.510      65.892
  H      153.067    -260.202      64.472
  H      153.023    -260.472      66.213
  P      153.008    -259.160      68.858
  C      153.435    -257.953      71.080
  O      152.491    -258.652      70.290
  O      154.135    -260.144      68.893
  O      151.705    -259.784      68.167
  H      151.963    -260.481      67.530
  H      152.914    -257.505      71.930
  H      153.907    -257.158      70.500
  H      154.194    -258.647      71.450
  H      150.015    -262.084      61.788
  H      148.985    -260.916      62.580
  H      149.034    -262.567      63.151

 3  4  5  6  7  8  9  10  11  12  13  23  28  29  30  31  32 0
 6-311+G(2d,p)
 ****
 33  34 0
 6-311+G(2d,p)
 ****
 1  2  14  15  16  17  18  19  20  21  22  24  25  26  27 0
 3-21G
 ****
 35  36  37  38  39  40  41  42  43  44  45 0
 3-21G
 ****


