%nproc=1
%NoSave
%Mem=1900MB
#P OB98/GEN NMR

erre ene a

0 1
  C        3.381    -253.338    -188.512
  O        2.243    -253.146    -189.316
  P        1.802    -251.733    -189.911
  C       -0.339    -251.348    -188.458
  O        0.215    -251.584    -189.750
  C       -1.407    -252.402    -188.117
  O       -2.206    -252.647    -189.306
  C       -0.768    -253.751    -187.726
  O       -1.401    -254.388    -186.625
  C       -0.733    -254.505    -189.046
  O       -0.607    -255.913    -188.892
  C       -2.010    -254.012    -189.717
  N       -4.628    -253.291    -194.021
  C       -4.932    -252.873    -192.739
  N       -6.168    -252.361    -192.557
  N       -4.102    -252.985    -191.733
  C       -2.953    -253.624    -192.042
  C       -2.541    -254.083    -193.277
  C       -3.449    -253.918    -194.387
  O       -3.270    -254.379    -195.515
  N       -1.336    -254.736    -193.204
  C       -1.035    -254.709    -191.920
  N       -2.002    -254.070    -191.173
  O        2.421    -251.327    -191.210
  O        2.353    -250.717    -188.777
  H       -0.570    -256.302    -189.786
  H        2.630    -249.899    -189.234
  H       -5.340    -253.253    -194.742
  H       -0.155    -255.156    -191.475
  H       -2.877    -254.592    -189.403
  H        0.158    -254.165    -189.595
  H       -6.875    -252.398    -193.281
  H        0.258    -253.596    -187.374
  H       -6.499    -252.276    -191.598
  H       -2.072    -252.006    -187.343
  H       -0.789    -250.352    -188.492
  H        0.448    -251.337    -187.695
  P       -0.877    -254.546    -185.123
  C       -2.498    -256.467    -184.607
  O       -2.051    -255.179    -184.235
  O       -0.779    -253.044    -184.567
  O        0.439    -255.230    -184.992
  H        0.020    -252.958    -184.009
  H       -3.458    -256.664    -184.118
  H       -1.773    -257.216    -184.274
  H       -2.627    -256.539    -185.694
  H        3.457    -254.371    -188.242
  H        3.297    -252.743    -187.626
  H        4.255    -253.046    -189.056

 3  4  5  6  7  8  9  10  11  12  23  26  30  31 0
 6-311+G(2d,p)
 ****
 33  35  36  37  38 0
 6-311+G(2d,p)
 ****
 1  2  13  14  15  16  17  18  19  20  21  22  24  25 0
 3-21G
 ****
 27  28  29  32  34  39  40  41  42  43  44  45  46  47  48  49 0
 3-21G
 ****


