%nproc=1
%NoSave
%Mem=1900MB
#P OB98/GEN NMR

erre ene a

0 1
  C       -4.543     367.176     -35.690
  O       -4.265     368.390     -36.362
  H       -3.660     366.881     -35.120
  H       -4.774     366.390     -36.414
  H       -5.384     367.309     -35.003
  P       -5.452     369.009     -37.250
  C       -6.902     368.150     -39.231
  O       -5.771     367.931     -38.393
  C       -6.674     367.481     -40.584
  O       -5.625     368.170     -41.301
  C       -6.213     366.032     -40.484
  O       -7.280     365.139     -40.206
  C       -5.595     365.826     -41.861
  O       -6.590     365.505     -42.839
  C       -4.978     367.197     -42.159
  N       -0.463     368.317     -44.261
  C       -1.733     368.491     -44.699
  N       -2.884     368.179     -44.068
  C       -2.634     367.657     -42.857
  C       -1.397     367.423     -42.276
  C       -0.268     367.782     -43.032
  N        1.021     367.586     -42.600
  N       -1.545     366.840     -41.032
  C       -2.849     366.727     -40.861
  N       -3.546     367.212     -41.934
  O       -4.730     370.200     -38.037
  O       -6.635     369.491     -36.477
  H       -7.140     364.799     -42.447
  H       -4.928     371.050     -37.598
  H       -1.833     368.930     -45.687
  H       -3.331     366.303     -39.989
  H       -5.150     367.512     -43.192
  H       -4.868     365.013     -41.841
  H       -5.424     365.938     -39.724
  H       -7.599     367.555     -41.173
  H       -7.039     369.227     -39.381
  H       -7.792     367.742     -38.740
  H        1.778     367.802     -43.225
  H        1.178     367.082     -41.736
  P       -6.988     363.917     -39.213
  C       -5.534     361.755     -39.331
  O       -6.132     362.833     -40.030
  O       -8.418     363.219     -39.038
  O       -6.393     364.307     -37.903
  H       -8.507     362.876     -38.125
  H       -5.005     361.132     -40.021
  H       -6.294     361.181     -38.843
  H       -4.852     362.138     -38.601

 6  7  8  9  10  11  12  13  14  15  25  28  32  33  34  35 0
 6-311+G(2d,p)
 ****
 36  37  40 0
 6-311+G(2d,p)
 ****
 1  2  3  4  5  16  17  18  19  20  21  22  23  24 0
 3-21G
 ****
 26  27  29  30  31  38  39 41  42  43  44  45  46  47  48 0
 3-21G
 ****


