%nproc=1
%NoSave
%Mem=1900MB
#P OB98/GEN NMR

erre ene a

0 1
  C     -293.521     291.831      83.636
  O     -293.129     291.310      82.386
  H     -292.640     292.241      84.141
  H     -293.939     291.036      84.262
  H     -294.256     292.632      83.511
  P     -294.290     290.797      81.404
  C     -293.051     292.123      79.544
  O     -293.713     290.919      79.908
  C     -292.103     291.876      78.369
  O     -291.023     291.011      78.814
  C     -292.778     291.207      77.169
  O     -292.233     291.769      75.968
  C     -292.356     289.754      77.280
  O     -292.373     289.075      76.023
  C     -290.964     289.885      77.916
  N     -290.575     288.658      78.616
  C     -289.494     287.951      78.090
  O     -288.913     288.367      77.078
  N     -289.118     286.774      78.676
  C     -289.822     286.290      79.652
  N     -289.419     285.101      80.177
  C     -291.017     286.966      80.200
  C     -291.330     288.141      79.643
  O     -295.378     291.970      81.471
  O     -294.869     289.464      81.736
  H     -293.306     288.987      75.735
  H     -296.282     291.621      81.357
  H     -291.588     286.516      80.997
  H     -292.192     288.701      79.970
  H     -290.208     290.105      77.153
  H     -293.033     289.224      77.961
  H     -293.866     291.320      77.162
  H     -291.650     292.831      78.080
  H     -288.604     284.660      79.764
  H     -292.468     292.482      80.402
  H     -289.917     284.610      80.906
  H     -293.795     292.883      79.284
  P     -293.080     292.944      75.274
  C     -291.021     293.934      74.036
  O     -292.326     293.377      73.932
  O     -292.859     294.189      76.259
  O     -294.529     292.619      75.111
  H     -293.679     294.376      76.753
  H     -290.655     294.170      73.059
  H     -290.367     293.226      74.500
  H     -291.060     294.825      74.627

 6  7  8  9  10  11  12  13  14  15  16  26  30  31  32  33  35 0
 6-311+G(2d,p)
 ****
 37  38 0
 6-311+G(2d,p)
 ****
 1  2  3  4  5  17  18  19  20  21  22  23  24  25 0
 3-21G
 ****
 27  28  29  34  36  39  40  41  42  43  44  45  46 0
 3-21G
 ****


