%nproc=1
%NoSave
%Mem=1900MB
#P OB98/GEN NMR

erre ene a

0 1
  C      204.133    -589.284     521.719
  O      203.523    -589.059     520.465
  H      203.903    -590.309     522.041
  H      203.742    -588.592     522.471
  H      205.215    -589.177     521.649
  P      203.706    -587.613     519.784
  C      205.580    -588.519     518.240
  O      205.225    -587.577     519.251
  C      206.000    -587.789     516.969
  O      206.873    -586.694     517.297
  C      206.755    -588.682     515.979
  O      205.841    -589.451     515.209
  C      207.470    -587.610     515.148
  O      206.538    -587.003     514.241
  C      207.889    -586.608     516.239
  N      212.871    -585.732     515.863
  C      211.840    -585.336     515.033
  N      212.184    -584.665     513.925
  N      210.579    -585.615     515.259
  C      210.383    -586.366     516.370
  C      211.325    -586.812     517.269
  C      212.711    -586.459     517.033
  O      213.668    -586.767     517.760
  N      210.763    -587.596     518.253
  C      209.483    -587.586     517.969
  N      209.195    -586.851     516.834
  O      203.331    -586.430     520.624
  O      202.841    -587.705     518.441
  H      206.226    -587.717     513.643
  H      201.934    -587.375     518.583
  H      213.814    -585.495     515.619
  H      208.706    -588.069     518.550
  H      207.890    -585.579     515.878
  H      208.291    -588.011     514.560
  H      213.126    -584.677     513.555
  H      207.510    -589.290     516.475
  H      211.437    -584.421     513.260
  H      205.103    -587.355     516.514
  H      204.706    -589.142     518.053
  H      206.399    -589.155     518.598
  P      206.298    -590.842     514.528
  C      205.643    -592.267     516.586
  O      206.702    -591.786     515.752
  O      207.358    -590.688     513.477
  O      204.934    -591.494     513.994
  H      204.693    -591.206     513.085
  H      206.051    -592.883     517.360
  H      204.958    -592.841     515.997
  H      205.129    -591.437     517.024

 6  7  8  9  10  11  12  13  14  15  26  29  33  34 0
 6-311+G(2d,p)
 ****
 36  38  39  40  41 0
 6-311+G(2d,p)
 ****
 1  2  3  4  5  16  17  18  19  20  21  22  23  24  25 0
 3-21G
 ****
 27  28  30  31  32  35  37  42  43  44  45  46  47 0
 3-21G
 ****
 48  49 0
 3-21G
 ****


