%nproc=1
%NoSave
%Mem=1900MB
#P OB98/GEN NMR

erre ene a

0 1
  C      111.619      52.862      32.388
  O      112.649      53.514      31.674
  H      110.782      52.682      31.709
  H      111.271      53.495      33.209
  H      111.965      51.901      32.779
  P      114.073      53.716      32.383
  C      113.213      56.028      33.138
  O      113.871      54.827      33.521
  C      113.438      57.105      34.195
  O      113.076      56.607      35.500
  C      114.889      57.563      34.316
  O      115.236      58.425      33.246
  C      114.863      58.223      35.688
  O      114.312      59.546      35.610
  C      113.919      57.276      36.468
  N      114.630      56.309      37.298
  C      115.396      56.827      38.339
  O      115.516      58.036      38.544
  N      116.039      55.908      39.128
  C      116.057      54.557      38.929
  O      116.693      53.780      39.636
  C      115.258      54.066      37.795
  C      114.594      54.949      37.046
  O      115.227      53.960      31.466
  O      114.268      52.369      33.227
  H      114.294      59.894      36.525
  H      114.863      51.763      32.747
  H      116.608      56.270      39.878
  H      115.256      53.002      37.605
  H      114.005      54.608      36.201
  H      113.250      57.857      37.116
  H      115.859      58.322      36.125
  H      115.560      56.697      34.354
  H      112.778      57.955      33.964
  H      112.140      55.828      33.046
  H      113.601      56.350      32.167
  P      116.625      58.247      32.474
  C      117.758      59.721      34.241
  O      117.806      58.485      33.539
  O      116.759      59.036      31.213
  O      116.712      56.673      32.184
  H      116.540      56.502      31.236
  H      118.583      59.778      34.920
  H      116.841      59.785      34.788
  H      117.814      60.530      33.543

 6  7  8  9  10  11  12  13  14  15  16  26  31  32  33  34  35 0
 6-311+G(2d,p)
 ****
 36  37 0
 6-311+G(2d,p)
 ****
 1  2  3  4  5  17  18  19  20  21  22  23  24  25 0
 3-21G
 ****
 27  28  29  30  38  39  40  41  42  43  44  45 0
 3-21G
 ****


