%nproc=1
%NoSave
%Mem=1900MB
#P OB98/GEN NMR

erre ene a

0 1
  C      -18.601      -8.930     -79.320
  O      -18.916      -8.355     -80.572
  H      -17.602      -8.621     -79.001
  H      -19.328      -8.585     -78.579
  H      -18.650     -10.022     -79.383
  P      -17.940      -8.709     -81.796
  C      -16.435      -6.593     -81.615
  O      -16.544      -7.998     -81.440
  C      -15.126      -6.274     -82.329
  O      -14.005      -6.725     -81.535
  C      -14.980      -6.962     -83.682
  O      -15.651      -6.269     -84.720
  C      -13.473      -6.906     -83.865
  O      -13.080      -5.580     -84.261
  C      -12.977      -7.208     -82.443
  N       -9.459     -10.923     -82.241
  C       -9.356      -9.593     -82.458
  N      -10.338      -8.669     -82.476
  C      -11.528      -9.236     -82.224
  C      -11.789     -10.575     -81.975
  C      -10.684     -11.444     -81.994
  N      -10.789     -12.804     -81.803
  N      -13.140     -10.779     -81.782
  C      -13.681      -9.582     -81.893
  N      -12.751      -8.623     -82.194
  O      -18.499      -7.816     -83.001
  O      -17.827     -10.156     -82.143
  H      -12.159      -5.639     -84.579
  H      -18.124      -8.117     -83.850
  H       -8.352      -9.225     -82.650
  H      -14.735      -9.362     -81.778
  H      -12.045      -6.683     -82.200
  H      -13.116      -7.592     -84.638
  H      -15.296      -8.011     -83.635
  H      -15.045      -5.184     -82.430
  H      -16.447      -6.108     -80.633
  H       -9.966     -13.358     -81.982
  H      -11.708     -13.218     -81.767
  H      -17.284      -6.233     -82.205
  P      -16.180      -7.134     -85.967
  C      -13.732      -7.205     -86.832
  O      -14.913      -7.940     -86.530
  O      -16.439      -6.023     -87.088
  O      -17.399      -7.950     -85.685
  H      -17.184      -6.280     -87.667
  H      -12.979      -7.873     -87.195
  H      -13.380      -6.717     -85.947
  H      -13.950      -6.472     -87.581

 6  7  8  9  10  11  12  13  14  15  25  28  32  33  34  35 0
 6-311+G(2d,p)
 ****
 36  39  40 0
 6-311+G(2d,p)
 ****
 1  2  3  4  5  16  17  18  19  20  21  22  23  24 0
 3-21G
 ****
 26  27  29  30  31  37  38  41  42  43  44  45  46  47 0
 3-21G
 ****
 48 0
 3-21G
 ****


