%nproc=1
%NoSave
%Mem=1900MB
#P OB98/GEN NMR

erre ene a

0 1
  C       31.422     -20.402     -17.279
  O       31.702     -19.158     -16.662
  P       30.587     -18.369     -15.815
  C       30.345     -16.629     -17.713
  O       29.699     -17.594     -16.901
  C       29.425     -15.430     -17.948
  O       28.228     -15.891     -18.628
  C       28.982     -14.711     -16.667
  O       28.879     -13.317     -16.975
  C       27.611     -15.304     -16.404
  O       26.804     -14.473     -15.583
  C       27.094     -15.483     -17.836
  N       26.014     -16.458     -17.924
  C       24.727     -16.035     -17.589
  O       24.519     -14.883     -17.209
  N       23.693     -16.931     -17.691
  C       23.934     -18.164     -18.014
  N       22.869     -18.998     -18.160
  C       25.292     -18.679     -18.270
  C       26.268     -17.776     -18.230
  O       31.122     -17.512     -14.721
  O       29.586     -19.511     -15.322
  H       27.279     -14.314     -14.745
  H       29.882     -19.949     -14.484
  H       25.446     -19.722     -18.509
  H       27.292     -18.058     -18.429
  H       26.758     -14.521     -18.240
  H       27.721     -16.270     -15.900
  H       29.686     -14.848     -15.840
  H       29.935     -14.730     -18.622
  H       21.950     -18.568     -18.147
  H       30.578     -17.089     -18.677
  H       22.942     -19.846     -18.710
  H       31.284     -16.319     -17.242
  P       29.600     -12.266     -15.998
  C       27.903     -12.164     -14.038
  O       29.163     -12.606     -14.495
  O       28.764     -10.925     -16.293
  O       31.053     -12.021     -16.241
  H       29.324     -10.153     -16.090
  H       27.773     -12.489     -13.002
  H       27.102     -12.598     -14.641
  H       27.845     -11.073     -14.072
  H       32.295     -20.752     -17.788
  H       30.624     -20.280     -17.982
  H       31.135     -21.113     -16.533

 3  4  5  6  7  8  9  10  11  12  13  23  27  28  29  30  32 0
 6-311+G(2d,p)
 ****
 34  35 0
 6-311+G(2d,p)
 ****
 1  2  14  15  16  17  18  19  20  21  22  24  25  26 0
 3-21G
 ****
 31  33  36  37  38  39  40  41  42  43  44  45  46 0
 3-21G
 ****


