%nproc=1
%NoSave
%Mem=1900MB
#P OB98/GEN NMR

erre ene a

0 1
  C      299.624    -350.008     110.513
  O      299.506    -350.536     109.205
  H      298.619    -349.888     110.930
  H      300.110    -349.030     110.484
  H      300.192    -350.688     111.155
  P      300.838    -350.956     108.418
  C      299.896    -352.877     106.979
  O      300.378    -351.539     106.995
  C      299.747    -353.351     105.528
  O      298.658    -352.653     104.889
  C      300.975    -353.083     104.664
  O      302.006    -354.016     104.941
  C      300.374    -353.195     103.272
  O      300.245    -354.568     102.869
  C      298.986    -352.543     103.477
  N      298.935    -351.156     103.031
  C      298.657    -350.951     101.674
  O      298.502    -351.870     100.870
  N      298.607    -349.644     101.271
  C      298.904    -348.557     102.045
  O      298.929    -347.408     101.611
  C      299.210    -348.829     103.447
  C      299.210    -350.097     103.875
  O      301.794    -351.815     109.174
  O      301.501    -349.547     108.028
  H      301.145    -354.954     102.915
  H      302.266    -349.379     108.610
  H      298.428    -349.479     100.295
  H      299.433    -347.989     104.095
  H      299.437    -350.323     104.908
  H      298.219    -353.117     102.935
  H      300.980    -352.693     102.522
  H      301.325    -352.060     104.821
  H      299.506    -354.425     105.543
  H      298.917    -352.907     107.471
  H      300.597    -353.516     107.524
  P      303.522    -353.671     104.546
  C      304.557    -354.272     106.823
  O      304.480    -354.593     105.434
  O      303.862    -352.213     104.547
  O      303.676    -354.293     103.080
  H      303.895    -353.581     102.446
  H      305.224    -354.953     107.310
  H      303.584    -354.350     107.262
  H      304.921    -353.272     106.938

 6  7  8  9  10  11  12  13  14  15  16  26  31  32  33  34  35 0
 6-311+G(2d,p)
 ****
 36  37 0
 6-311+G(2d,p)
 ****
 1  2  3  4  5  17  18  19  20  21  22  23  24  25 0
 3-21G
 ****
 27  28  29  30  38  39  40  41  42  43  44  45 0
 3-21G
 ****


