%nproc=1
%NoSave
%Mem=1900MB
#P OB98/GEN NMR

erre ene a

0 1
  C      659.065       6.551     239.420
  O      658.292       6.161     240.539
  H      659.701       5.711     239.121
  H      659.703       7.399     239.687
  H      658.418       6.822     238.582
  P      657.130       7.168     240.985
  C      657.100       9.426     242.318
  O      657.774       8.210     242.029
  C      657.553       9.967     243.672
  O      657.075       9.131     244.745
  C      659.060       9.974     243.869
  O      659.703      10.980     243.111
  C      659.148      10.197     245.371
  O      659.061      11.586     245.708
  C      657.909       9.428     245.890
  N      658.285       8.236     246.624
  C      658.191       8.333     248.019
  O      657.795       9.377     248.541
  N      658.587       7.264     248.782
  C      659.062       6.205     248.204
  N      659.469       5.195     249.024
  C      659.177       6.059     246.740
  C      658.774       7.103     246.018
  O      656.210       6.245     241.912
  O      656.400       7.822     239.860
  H      658.709      11.628     246.620
  H      656.706       5.745     242.582
  H      659.567       5.148     246.311
  H      658.825       7.080     244.934
  H      657.312      10.065     246.554
  H      660.095       9.831     245.778
  H      659.476       8.984     243.644
  H      657.129      10.974     243.798
  H      659.422       5.355     250.021
  H      656.018       9.274     242.315
  H      659.925       4.356     248.694
  H      657.339      10.138     241.522
  P      661.286      11.183     243.169
  C      663.004      11.985     244.915
  O      661.625      11.765     244.635
  O      661.878      11.965     242.048
  O      661.839       9.683     243.278
  H      661.527       9.185     244.054
  H      663.109      12.369     245.908
  H      663.402      12.690     244.216
  H      663.537      11.061     244.831

 6  7  8  9  10  11  12  13  14  15  16  26  30  31  32  33  35 0
 6-311+G(2d,p)
 ****
 37  38 0
 6-311+G(2d,p)
 ****
 1  2  3  4  5  17  18  19  20  21  22  23  24  25 0
 3-21G
 ****
 27  28  29  34  36  39  40  41  42  43  44  45  46 0
 3-21G
 ****


