%nproc=1
%NoSave
%Mem=1900MB
#P OB98/GEN NMR

erre ene a

0 1
  C     -509.972     357.343     529.677
  O     -510.794     358.494     529.636
  H     -509.477     357.302     530.651
  H     -509.210     357.393     528.894
  H     -510.580     356.445     529.550
  P     -511.587     358.759     528.268
  C     -514.004     358.778     529.165
  O     -513.004     358.031     528.481
  C     -514.443     358.044     530.434
  O     -513.318     357.996     531.350
  C     -515.604     358.725     531.160
  O     -516.477     357.728     531.687
  C     -514.929     359.469     532.299
  O     -515.806     359.687     533.401
  C     -513.746     358.551     532.606
  N     -509.705     358.110     535.688
  C     -510.528     357.190     535.140
  N     -511.574     357.394     534.313
  C     -511.707     358.703     534.028
  C     -510.948     359.752     534.512
  C     -509.904     359.415     535.390
  N     -509.076     360.347     535.974
  N     -511.417     360.956     534.022
  C     -512.435     360.635     533.243
  N     -512.657     359.285     533.229
  O     -510.862     358.393     527.018
  O     -511.972     360.306     528.410
  H     -515.331     360.217     534.074
  H     -512.296     360.513     529.308
  H     -510.325     356.156     535.404
  H     -513.046     361.337     532.687
  H     -514.013     357.729     533.280
  H     -514.580     360.444     531.945
  H     -516.165     359.402     530.511
  H     -514.686     357.007     530.176
  H     -514.870     358.931     528.514
  H     -508.342     360.018     536.582
  H     -509.197     361.323     535.752
  H     -513.579     359.753     529.419
  P     -517.608     357.117     530.731
  C     -517.858     354.738     531.696
  O     -517.380     355.532     530.615
  O     -517.827     357.832     529.439
  O     -518.922     357.203     531.651
  H     -519.687     357.434     531.092
  H     -517.648     353.707     531.501
  H     -518.914     354.873     531.798
  H     -517.371     355.037     532.601

 6  7  8  9  10  11  12  13  14  15  25  28  32  33  34  35 0
 6-311+G(2d,p)
 ****
 36  39  40 0
 6-311+G(2d,p)
 ****
 1  2  3  4  5  16  17  18  19  20  21  22  23  24 0
 3-21G
 ****
 26  27  29  30  31  37  38  41  42  43  44  45  46  47 0
 3-21G
 ****
 48 0
 3-21G
 ****


