%nproc=1
%NoSave
%Mem=1900MB
#P OB98/GEN NMR

erre ene a

0 1
  C     -261.457     166.976     289.748
  O     -261.097     165.635     290.021
  P     -262.143     164.703     290.800
  C     -261.958     162.519     289.352
  O     -262.712     163.658     289.724
  C     -262.737     161.239     289.673
  O     -262.945     161.163     291.111
  C     -264.113     161.149     289.003
  O     -264.340     159.770     288.684
  C     -265.055     161.602     290.106
  O     -266.385     161.150     289.910
  C     -264.360     161.007     291.336
  N     -264.754     161.645     292.592
  C     -265.512     160.903     293.489
  O     -265.889     159.751     293.281
  N     -265.859     161.547     294.650
  C     -265.586     162.846     294.962
  O     -265.936     163.376     296.010
  C     -264.822     163.596     293.954
  C     -264.440     162.969     292.842
  O     -263.353     165.722     291.031
  O     -261.591     164.089     292.040
  H     -263.472     166.344     290.292
  H     -266.394     160.180     290.015
  H     -266.377     161.015     295.332
  H     -264.598     164.635     294.159
  H     -263.878     163.501     292.083
  H     -264.560     159.930     291.395
  H     -265.069     162.696     290.145
  H     -264.179     161.756     288.098
  H     -262.116     160.380     289.390
  H     -261.015     162.510     289.905
  H     -261.722     162.574     288.285
  P     -265.186     159.427     287.359
  C     -263.786     158.234     285.495
  O     -264.166     159.438     286.125
  O     -265.988     160.805     287.170
  O     -266.087     158.243     287.475
  H     -265.416     161.586     287.234
  H     -263.379     158.468     284.509
  H     -264.637     157.562     285.372
  H     -263.010     157.741     286.087
  H     -260.658     167.461     289.227
  H     -261.646     167.489     290.668
  H     -262.339     166.992     289.143

 3  4  5  6  7  8  9  10  11  12  13  24  28  29  30  31  32 0
 6-311+G(2d,p)
 ****
 33  34 0
 6-311+G(2d,p)
 ****
 1  2  14  15  16  17  18  19  20  21  22  23  25  26  27 0
 3-21G
 ****
 35  36  37  38  39  40  41  42  43  44  45 0
 3-21G
 ****


