%nproc=1
%NoSave
%Mem=1900MB
#P OB98/GEN NMR

erre ene a

0 1
  C       95.610    -332.026     195.807
  O       95.859    -331.902     197.212
  P       94.920    -330.900     198.043
  C       93.630    -332.578     199.560
  O       93.584    -331.683     198.457
  C       92.354    -332.457     200.392
  O       91.205    -332.925     199.658
  C       92.381    -333.293     201.663
  O       93.160    -332.659     202.659
  C       90.900    -333.394     202.008
  O       90.476    -332.317     202.856
  C       90.214    -333.310     200.625
  N       89.558    -334.550     200.245
  C       88.262    -334.738     200.741
  O       87.752    -333.888     201.473
  N       87.594    -335.890     200.416
  C       88.177    -336.791     199.682
  N       87.468    -337.913     199.400
  C       89.552    -336.644     199.161
  C       90.179    -335.513     199.480
  O       94.417    -329.864     196.936
  O       95.623    -330.209     199.166
  H       90.676    -331.496     202.356
  H       94.292    -328.986     197.326
  H       89.997    -337.424     198.565
  H       91.192    -335.317     199.143
  H       89.453    -332.517     200.628
  H       90.681    -334.328     202.544
  H       92.782    -334.294     201.442
  H       92.202    -331.397     200.645
  H       86.529    -337.979     199.774
  H       94.502    -332.365     200.183
  H       87.824    -338.678     198.844
  H       93.755    -333.601     199.179
  P       93.698    -333.552     203.870
  C       96.150    -333.139     203.226
  O       95.127    -334.100     203.377
  O       92.786    -334.866     203.746
  O       93.647    -332.959     205.238
  H       92.952    -335.461     204.501
  H       97.103    -333.655     203.095
  H       96.213    -332.498     204.113
  H       95.958    -332.530     202.338
  H       96.304    -332.721     195.382
  H       95.729    -331.072     195.338
  H       94.612    -332.378     195.651

 3  4  5  6  7  8  9  10  11  12  13  21  23  27  28  29  30  32 0
 6-311+G(2d,p)
 ****
 34  35 0
 6-311+G(2d,p)
 ****
 1  2  14  15  16  17  18  19  20  22  24  25  26 0
 3-21G
 ****
 31  33  36  37  38  39  40  41  42  43  44  45  46 0
 3-21G
 ****


