%nproc=1
%NoSave
%Mem=1900MB
#P OB98/GEN NMR

erre ene a

0 1
  C      908.780     316.706     -56.953
  O      908.236     317.403     -55.846
  P      906.644     317.279     -55.612
  C      906.231     319.839     -55.533
  O      906.008     318.626     -56.222
  C      905.237     320.906     -56.017
  O      905.437     321.186     -57.407
  C      903.786     320.493     -55.893
  O      903.336     320.592     -54.553
  C      903.098     321.473     -56.829
  O      902.790     322.710     -56.190
  C      904.178     321.675     -57.937
  N      903.832     321.044     -59.194
  C      903.377     321.897     -60.193
  O      903.238     323.103     -59.984
  N      903.017     321.349     -61.404
  C      903.122     320.074     -61.602
  N      902.770     319.576     -62.818
  C      903.605     319.111     -60.550
  C      903.953     319.687     -59.384
  O      906.494     317.473     -54.038
  O      906.046     315.997     -56.084
  H      902.349     323.268     -56.864
  H      905.697     317.030     -53.692
  H      903.667     318.067     -60.764
  H      904.299     319.073     -58.568
  H      904.338     322.752     -58.120
  H      902.153     321.063     -57.240
  H      903.630     319.464     -56.253
  H      905.420     321.828     -55.439
  H      902.430     320.237     -63.494
  H      907.244     320.206     -55.731
  H      902.838     318.592     -63.070
  H      906.128     319.672     -54.445
  P      901.863     320.073     -54.202
  C      901.163     322.386     -53.322
  O      900.929     321.371     -54.282
  O      901.958     319.834     -52.608
  O      901.392     318.866     -54.919
  H      901.142     319.397     -52.292
  H      900.578     323.263     -53.575
  H      902.223     322.657     -53.306
  H      900.856     322.041     -52.333
  H      909.836     316.871     -56.994
  H      908.328     317.062     -57.855
  H      908.586     315.659     -56.846

 3  4  5  6  7  8  9  10  11  12  13  21  23  27  28  29  30  32 0
 6-311+G(2d,p)
 ****
 34  35 0
 6-311+G(2d,p)
 ****
 1  2  14  15  16  17  18  19  20  22  24  25  26 0
 3-21G
 ****
 31  33  36  37  38  39  40  41  42  43  44  45  46 0
 3-21G
 ****


