%nproc=1
%NoSave
%Mem=1900MB
#P OB98/GEN NMR

erre ene a

0 1
  C     2314.941     994.371    -896.230
  O     2315.527     995.445    -896.930
  H     2315.202     994.464    -895.180
  H     2315.333     993.415    -896.610
  H     2313.857     994.388    -896.330
  P     2315.091     995.639    -898.460
  C     2315.170     998.228    -898.840
  O     2314.380     997.075    -898.560
  C     2314.920     999.307    -897.780
  O     2315.348     998.814    -896.490
  C     2315.662    1000.628    -898.050
  O     2314.840    1001.708    -897.630
  C     2316.861    1000.512    -897.140
  O     2317.424    1001.790    -896.790
  C     2316.226     999.802    -895.920
  N     2317.260     999.192    -895.070
  C     2317.524     999.802    -893.860
  O     2316.933    1000.775    -893.420
  N     2318.540     999.241    -893.150
  C     2319.323     998.186    -893.530
  O     2320.243     997.763    -892.830
  C     2318.990     997.588    -894.810
  C     2317.995     998.108    -895.520
  O     2313.893     994.600    -898.630
  O     2316.171     995.445    -899.480
  H     2314.222     993.733    -898.920
  H     2317.721    1002.232    -897.610
  H     2318.759     999.693    -892.240
  H     2319.600     996.736    -895.130
  H     2317.761     997.674    -896.490
  H     2315.645    1000.508    -895.340
  H     2317.650     999.910    -897.590
  H     2315.977    1000.777    -899.130
  H     2313.834     999.497    -897.720
  H     2314.900     998.603    -899.840
  H     2316.225     997.943    -898.840
  P     2313.761    1002.260    -898.720
  C     2311.783    1002.249    -897.010
  O     2312.338    1001.720    -898.200
  O     2314.097    1001.345    -900.000
  O     2313.868    1003.738    -898.950
  H     2314.361    1000.455    -899.760
  H     2310.841    1001.779    -896.816
  H     2311.639    1003.303    -897.121
  H     2312.449    1002.064    -896.193

 6  7  8  9  10  11  12  13  14  15  16  27  31  32  33  34  35 0
 6-311+G(2d,p)
 ****
 36  37 0
 6-311+G(2d,p)
 ****
 1  2  3  4  5  17  18  19  20  21  22  23  24  25 0
 3-21G
 ****
 26  28  29  30  38  39  40  41  42  43  44  45 0
 3-21G
 ****


