%nproc=1
%NoSave
%Mem=1900MB
#P OB98/GEN NMR

erre ene a

0 1
  C     -810.681     501.415    -390.070
  O     -811.785     501.213    -389.182
  P     -813.271     501.555    -389.698
  C     -814.768     500.573    -387.846
  O     -814.262     500.408    -389.162
  C     -814.482     499.334    -386.993
  O     -813.071     499.224    -386.668
  C     -815.198     499.356    -385.647
  O     -816.582     499.077    -385.806
  C     -814.409     498.318    -384.869
  O     -814.876     496.983    -385.178
  C     -812.985     498.512    -385.409
  N     -812.110     499.220    -384.488
  C     -811.499     498.438    -383.489
  O     -811.744     497.232    -383.414
  N     -810.652     499.046    -382.603
  C     -810.429     500.318    -382.686
  N     -809.577     500.878    -381.779
  C     -811.061     501.187    -383.710
  C     -811.903     500.570    -384.558
  O     -813.393     501.875    -391.145
  O     -813.680     502.812    -388.780
  H     -814.479     496.391    -384.524
  H     -814.286     503.372    -389.293
  H     -810.837     502.247    -383.749
  H     -812.403     501.144    -385.332
  H     -812.521     497.546    -385.623
  H     -814.523     498.447    -383.788
  H     -815.064     500.347    -385.181
  H     -814.791     498.447    -387.567
  H     -809.175     500.253    -381.093
  H     -815.851     500.752    -387.899
  H     -809.303     501.847    -381.798
  H     -814.326     501.470    -387.403
  P     -817.616     500.297    -385.605
  C     -819.559     499.850    -387.268
  O     -818.345     500.557    -386.986
  O     -816.643     501.575    -385.442
  O     -818.504     500.161    -384.413
  H     -817.046     502.199    -384.833
  H     -820.081     500.362    -388.085
  H     -820.210     499.822    -386.379
  H     -819.319     498.835    -387.574
  H     -809.772     501.142    -389.576
  H     -810.637     502.445    -390.355
  H     -810.809     500.809    -390.942

 3  4  5  6  7  8  9  10  11  12  13  23  27  28  29  30  32 0
 6-311+G(2d,p)
 ****
 34  35 0
 6-311+G(2d,p)
 ****
 1  2  14  15  16  17  18  19  20  21  22  24  25  26 0
 3-21G
 ****
 31  33  36  37  38  39  40  41  42  43  44  45  46 0
 3-21G
 ****


