%nproc=1
%NoSave
%Mem=1900MB
#P OB98/GEN NMR

erre ene a

0 1
  C      576.830     503.760    -722.189
  O      575.701     504.581    -722.442
  H      577.212     503.967    -721.186
  H      577.617     503.979    -722.915
  H      576.558     502.699    -722.249
  P      574.876     504.286    -723.782
  C      572.389     504.485    -724.494
  O      573.344     504.619    -723.450
  C      570.980     504.393    -723.917
  O      570.856     503.231    -723.067
  C      570.578     505.597    -723.050
  O      570.123     506.688    -723.843
  C      569.437     504.986    -722.241
  O      568.251     504.912    -723.061
  C      569.973     503.578    -721.961
  N      570.146     501.337    -717.411
  C      569.227     501.196    -718.418
  N      568.200     500.363    -718.203
  N      569.293     501.838    -719.561
  C      570.372     502.651    -719.661
  C      571.362     502.861    -718.710
  C      571.270     502.151    -717.455
  O      572.082     502.212    -716.543
  N      572.303     503.770    -719.169
  C      571.870     504.119    -720.362
  N      570.711     503.463    -720.709
  O      574.902     502.679    -723.885
  O      575.415     504.922    -725.025
  H      568.001     505.840    -723.281
  H      574.947     502.424    -724.829
  H      570.033     500.824    -716.549
  H      572.379     504.803    -721.020
  H      569.177     502.825    -721.922
  H      569.194     505.583    -721.365
  H      568.036     499.881    -717.332
  H      571.386     505.894    -722.373
  H      567.513     500.216    -718.942
  H      570.271     504.280    -724.745
  H      572.604     503.569    -725.067
  H      572.474     505.355    -725.163
  P      569.736     508.050    -723.091
  C      570.241     510.558    -723.583
  O      570.651     509.196    -723.731
  O      570.348     507.848    -721.618
  O      568.258     508.333    -723.042
  H      569.884     508.412    -720.983
  H      570.952     511.199    -724.062
  H      570.184     510.802    -722.543
  H      569.280     510.692    -724.034

 6  7  8  9  10  11  12  13  14  15  26  29  33  34 0
 6-311+G(2d,p)
 ****
 36  38  39  40  41 0
 6-311+G(2d,p)
 ****
 1  2  3  4  5  16  17  18  19  20  21  22  23  24  25 0
 3-21G
 ****
 27  28  30  31  32  35  37  42  43  44  45  46  47 0
 3-21G
 ****
 48  49 0
 3-21G
 ****


