%nproc=1
%NoSave
%Mem=1900MB
#P OB98/GEN NMR

erre ene a

0 1
  C       56.433      18.528    -138.604
  O       56.531      17.956    -139.893
  H       56.033      19.540    -138.699
  H       57.425      18.583    -138.151
  H       55.763      17.942    -137.969
  P       56.780      16.373    -139.966
  C       55.412      15.668    -142.057
  O       56.691      15.969    -141.518
  C       55.495      15.539    -143.574
  O       55.578      16.844    -144.186
  C       56.703      14.753    -144.073
  O       56.466      13.353    -144.039
  C       56.795      15.256    -145.504
  O       55.785      14.613    -146.311
  C       56.461      16.745    -145.340
  N       60.074      19.512    -147.576
  C       59.098      18.712    -148.136
  N       59.089      18.631    -149.484
  N       58.213      18.046    -147.440
  C       58.358      18.202    -146.103
  C       59.289      18.961    -145.430
  C       60.249      19.704    -146.212
  O       61.127      20.436    -145.764
  N       59.125      18.872    -144.073
  C       58.111      18.043    -143.925
  N       57.612      17.605    -145.127
  O       55.432      15.775    -139.339
  O       57.983      15.883    -139.234
  H       56.067      13.688    -146.436
  H       55.609      15.494    -138.421
  H       60.737      19.995    -148.157
  H       57.697      17.735    -142.975
  H       55.920      17.148    -146.203
  H       57.758      15.036    -145.967
  H       59.754      19.099    -150.078
  H       57.616      15.024    -143.529
  H       58.378      18.052    -149.916
  H       54.563      15.075    -143.921
  H       54.717      16.473    -141.796
  H       55.055      14.730    -141.621
  P       57.723      12.375    -143.845
  C       56.338      11.003    -142.136
  O       57.148      10.976    -143.302
  O       58.458      12.999    -142.568
  O       58.643      12.283    -145.012
  H       59.314      13.388    -142.834
  H       56.029      10.008    -141.893
  H       55.476      11.611    -142.315
  H       56.899      11.411    -141.321

 6  7  8  9  10  11  12  13  14  15  26  29  33  34 0
 6-311+G(2d,p)
 ****
 36  38  39  40  41 0
 6-311+G(2d,p)
 ****
 1  2  3  4  5  16  17  18  19  20  21  22  23  24  25 0
 3-21G
 ****
 27  28  30  31  32  35  37  42  43  44  45  46  47 0
 3-21G
 ****
 48  49 0
 3-21G
 ****


