%nproc=1
%NoSave
%Mem=1900MB
#P OB98/GEN NMR

erre ene a

0 1
  C      211.360     286.463     209.601
  O      210.301     286.890     210.433
  P      210.112     288.463     210.692
  C      210.409     288.244     213.299
  O      209.587     288.619     212.205
  C      210.096     289.118     214.519
  O      210.567     290.473     214.262
  C      208.611     289.201     214.880
  O      208.521     289.280     216.310
  C      208.182     290.520     214.251
  O      207.007     291.058     214.841
  C      209.446     291.358     214.470
  N      209.536     292.519     213.578
  C      209.035     293.738     214.036
  O      208.494     293.887     215.136
  N      209.141     294.792     213.162
  C      209.623     294.732     211.885
  O      209.679     295.703     211.142
  C      210.097     293.409     211.448
  C      210.042     292.389     212.293
  O      208.818     288.768     209.801
  O      211.316     289.279     210.360
  H      208.173     288.040     209.795
  H      206.963     292.009     214.618
  H      208.815     295.688     213.484
  H      210.474     293.321     210.426
  H      210.377     291.403     211.992
  H      209.496     291.698     215.513
  H      207.989     290.365     213.179
  H      208.036     288.340     214.518
  H      210.677     288.731     215.370
  H      211.461     288.377     213.020
  H      210.253     287.181     213.520
  P      207.982     287.979     217.107
  C      205.628     288.990     217.675
  O      206.867     288.489     218.144
  O      209.240     287.696     218.057
  O      207.627     286.812     216.246
  H      209.569     288.485     218.514
  H      204.908     288.958     218.502
  H      205.238     288.392     216.849
  H      205.749     290.027     217.355
  H      211.350     285.395     209.530
  H      212.292     286.784     210.017
  H      211.240     286.886     208.626

 3  4  5  6  7  8  9  10  11  12  13  24  28  29  30  31  32 0
 6-311+G(2d,p)
 ****
 33  34 0
 6-311+G(2d,p)
 ****
 1  2  14  15  16  17  18  19  20  21  22  23  25  26  27 0
 3-21G
 ****
 35  36  37  38  39  40  41  42  43  44  45 0
 3-21G
 ****


