%nproc=1
%NoSave
%Mem=1900MB
#P OB98/GEN NMR

erre ene a

0 1
  C      236.827     836.506      57.030
  O      238.034     835.948      56.549
  H      236.525     837.339      56.387
  H      236.045     835.741      56.998
  H      236.943     836.854      58.058
  P      239.378     836.793      56.778
  C      240.187     836.577      54.322
  O      239.757     837.447      55.356
  C      240.377     837.360      53.018
  O      239.083     837.538      52.394
  C      241.018     838.744      53.202
  O      241.920     838.981      52.111
  C      239.832     839.693      53.075
  O      240.217     840.997      52.643
  C      238.966     838.943      52.077
  N      235.950     843.024      51.701
  C      237.222     842.802      51.301
  N      237.936     841.667      51.394
  C      237.177     840.663      51.899
  C      235.868     840.737      52.336
  C      235.247     841.993      52.242
  N      233.980     842.245      52.700
  N      235.466     839.509      52.839
  C      236.516     838.726      52.719
  N      237.584     839.382      52.160
  O      240.479     835.646      56.965
  O      239.354     837.740      57.934
  H      239.400     841.516      52.463
  H      240.523     835.383      57.903
  H      237.737     843.654      50.871
  H      236.577     837.710      53.060
  H      239.288     839.087      51.033
  H      239.330     839.777      54.047
  H      241.547     838.868      54.152
  H      240.980     836.742      52.337
  H      239.424     835.800      54.164
  H      233.650     843.204      52.691
  H      233.486     841.518      53.203
  H      241.123     836.091      54.619
  P      243.476     839.160      52.463
  C      243.655     841.757      52.391
  O      243.675     840.580      53.185
  O      244.151     839.377      51.033
  O      244.069     837.994      53.188
  H      245.050     838.996      51.024
  H      243.800     842.612      53.017
  H      242.711     841.836      51.893
  H      244.439     841.710      51.664

 6  7  8  9  10  11  12  13  14  15  25  28  32  33  34  35 0
 6-311+G(2d,p)
 ****
 36  39  40 0
 6-311+G(2d,p)
 ****
 1  2  3  4  5  16  17  18  19  20  21  22  23  24 0
 3-21G
 ****
 26  27  29  30  31  37  38  41  42  43  44  45  46  47 0
 3-21G
 ****
 48 0
 3-21G
 ****


