%nproc=1
%NoSave
%Mem=1900MB
#P OB98/GEN NMR

erre ene a

0 1
  C     -106.237    -159.054     440.729
  O     -107.068    -158.715     439.615
  P     -108.399    -157.866     439.911
  C     -109.945    -159.830     440.627
  O     -109.678    -158.808     439.672
  C     -111.436    -160.197     440.653
  O     -112.260    -159.026     440.418
  C     -111.830    -161.233     439.586
  O     -112.928    -162.008     440.096
  C     -112.334    -160.365     438.450
  O     -113.141    -161.104     437.539
  C     -113.059    -159.273     439.240
  N     -116.214    -156.743     436.226
  C     -116.347    -157.989     436.806
  N     -117.506    -158.643     436.582
  N     -115.423    -158.547     437.552
  C     -114.331    -157.756     437.723
  C     -114.079    -156.513     437.193
  C     -115.102    -155.919     436.354
  O     -115.031    -154.825     435.799
  N     -112.848    -156.047     437.570
  C     -112.352    -157.014     438.325
  N     -113.228    -158.056     438.473
  O     -108.455    -156.844     438.676
  O     -108.372    -157.136     441.216
  H     -113.516    -160.464     436.896
  H     -108.238    -155.949     438.983
  H     -116.958    -156.366     435.658
  H     -111.373    -157.009     438.780
  H     -114.063    -159.592     439.564
  H     -111.485    -159.947     437.897
  H     -118.279    -158.249     436.067
  H     -111.025    -161.911     439.282
  H     -117.646    -159.538     437.031
  H     -111.683    -160.586     441.647
  H     -109.636    -159.508     441.623
  H     -109.329    -160.701     440.388
  P     -112.653    -163.562     440.374
  C     -114.700    -164.748     439.294
  O     -114.096    -164.257     440.475
  O     -112.117    -163.587     441.880
  O     -111.697    -164.206     439.426
  H     -111.564    -164.375     442.030
  H     -114.607    -165.834     439.278
  H     -114.242    -164.326     438.394
  H     -115.763    -164.483     439.309
  H     -105.393    -159.615     440.387
  H     -106.797    -159.642     441.426
  H     -105.900    -158.159     441.208

 3  4  5  6  7  8  9  10  11  12  23  26  30  31 0
 6-311+G(2d,p)
 ****
 33  35  36  37  38 0
 6-311+G(2d,p)
 ****
 1  2  13  14  15  16  17  18  19  20  21  22  24  25 0
 3-21G
 ****
 27  28  29  32  34  39  40  41  42  43  44  45  46  47  48  49 0
 3-21G
 ****


