%nproc=1
%NoSave
%Mem=1900MB
#P OB98/GEN NMR

erre ene a

0 1
  C     -836.328     545.038    -734.606
  O     -835.828     543.738    -734.232
  P     -835.206     542.843    -735.387
  C     -837.553     541.890    -735.970
  O     -836.198     541.599    -735.649
  C     -838.291     540.598    -736.347
  O     -837.840     540.078    -737.623
  C     -838.087     539.474    -735.343
  O     -838.866     539.683    -734.177
  C     -838.537     538.273    -736.179
  O     -839.972     538.177    -736.219
  C     -837.998     538.643    -737.576
  N     -835.741     534.951    -740.328
  C     -837.033     535.338    -740.212
  N     -837.554     536.337    -739.451
  C     -836.586     536.963    -738.781
  C     -835.234     536.693    -738.782
  C     -834.816     535.615    -739.603
  N     -833.487     535.202    -739.694
  N     -834.534     537.539    -737.944
  C     -835.482     538.313    -737.417
  N     -836.745     538.004    -737.895
  O     -833.925     542.164    -734.708
  O     -834.820     543.622    -736.615
  H     -840.323     539.053    -736.494
  H     -833.103     542.567    -735.052
  H     -837.754     534.783    -740.829
  H     -835.301     539.096    -736.684
  H     -838.702     538.384    -738.377
  H     -838.157     537.321    -735.801
  H     -837.026     539.383    -735.074
  H     -839.366     540.840    -736.446
  H     -837.613     542.614    -736.793
  H     -833.292     534.385    -740.245
  H     -832.819     535.652    -739.091
  H     -838.023     542.371    -735.097
  P     -838.203     540.536    -732.991
  C     -837.671     538.298    -731.831
  O     -838.311     539.558    -731.712
  O     -839.342     541.630    -732.704
  O     -836.823     541.066    -733.280
  H     -840.231     541.229    -732.652
  H     -837.792     537.764    -730.889
  H     -836.599     538.439    -732.023
  H     -838.128     537.721    -732.647
  H     -836.717     545.533    -733.741
  H     -837.106     544.926    -735.332
  H     -835.532     545.620    -735.023

 3  4  5  6  7  8  9  10  11  12  22  25  29  30  31  32 0
 6-311+G(2d,p)
 ****
 33  36  37 0
 6-311+G(2d,p)
 ****
 1  2  13  14  15  16  17  18  19  20  21  23  24  26 0
 3-21G
 ****
 27  28  34  35  38  39  40  41  42  43  44  45  46  47  48 0
 3-21G
 ****


