%nproc=1
%NoSave
%Mem=1900MB
#P OB98/GEN NMR

erre ene a

0 1
  C     -386.750     177.719     285.485
  O     -387.851     177.545     284.614
  H     -386.174     176.788     285.517
  H     -387.098     177.951     286.493
  H     -386.098     178.523     285.123
  P     -388.724     178.855     284.282
  C     -389.384     177.771     281.983
  O     -389.799     178.391     283.192
  C     -390.558     177.057     281.310
  O     -390.899     175.886     282.097
  C     -391.816     177.922     281.185
  O     -392.452     177.610     279.942
  C     -392.682     177.462     282.342
  O     -394.067     177.726     282.109
  C     -392.300     175.980     282.448
  N     -392.552     175.428     283.779
  C     -393.894     175.339     284.180
  O     -394.791     175.724     283.427
  N     -394.177     174.847     285.426
  C     -393.206     174.542     286.239
  N     -393.557     174.083     287.470
  C     -391.780     174.678     285.880
  C     -391.533     175.106     284.645
  O     -387.676     179.733     283.440
  O     -389.281     179.545     285.481
  H     -394.584     177.356     282.861
  H     -387.152     179.214     282.807
  H     -391.012     174.423     286.602
  H     -390.512     175.223     284.298
  H     -392.864     175.384     281.711
  H     -392.387     177.992     283.260
  H     -391.610     178.994     281.233
  H     -390.228     176.690     280.330
  H     -394.544     174.025     287.681
  H     -388.582     177.053     282.184
  H     -392.894     173.860     288.201
  H     -388.981     178.551     281.324
  P     -392.879     178.803     278.959
  C     -392.249     177.628     276.752
  O     -393.293     178.191     277.532
  O     -391.933     179.962     278.893
  O     -394.300     179.273     279.555
  H     -394.348     180.246     279.483
  H     -392.651     177.258     275.832
  H     -391.794     176.824     277.292
  H     -391.515     178.378     276.544

 6  7  8  9  10  11  12  13  14  15  16  26  30  31  32  33  35 0
 6-311+G(2d,p)
 ****
 37  38 0
 6-311+G(2d,p)
 ****
 1  2  3  4  5  17  18  19  20  21  22  23  24  25 0
 3-21G
 ****
 27  28  29  34  36  39  40  41  42  43  44  45  46 0
 3-21G
 ****


