%nproc=1
%NoSave
%Mem=1900MB
#P OB98/GEN NMR

erre ene a

0 1
  C     -119.526      78.223    -308.573
  O     -120.803      78.457    -309.205
  P     -121.102      79.899    -309.855
  C     -120.097      80.174    -312.247
  O     -121.208      79.782    -311.452
  C     -120.309      79.805    -313.724
  O     -120.600      78.379    -313.848
  C     -121.463      80.558    -314.410
  O     -121.092      80.731    -315.789
  C     -122.614      79.568    -314.301
  O     -123.660      79.821    -315.227
  C     -121.860      78.250    -314.546
  N     -122.580      77.057    -314.102
  C     -123.805      76.776    -314.703
  O     -124.356      77.493    -315.528
  N     -124.425      75.621    -314.282
  C     -123.965      74.766    -313.312
  O     -124.581      73.763    -312.971
  C     -122.684      75.126    -312.700
  C     -122.060      76.232    -313.110
  O     -119.696      80.648    -309.660
  O     -122.200      80.685    -309.204
  H     -124.389      79.211    -315.004
  H     -119.848      81.548    -309.314
  H     -125.303      75.393    -314.713
  H     -122.280      74.471    -311.935
  H     -121.102      76.515    -312.676
  H     -121.623      78.158    -315.606
  H     -123.039      79.618    -313.294
  H     -121.682      81.526    -313.949
  H     -119.366      79.979    -314.260
  H     -119.192      79.670    -311.883
  H     -119.952      81.254    -312.150
  P     -121.116      82.222    -316.404
  C     -118.590      82.420    -315.719
  O     -119.595      82.630    -316.694
  O     -121.475      83.068    -315.081
  O     -122.092      82.421    -317.513
  H     -120.954      82.795    -314.307
  H     -118.719      81.449    -315.222
  H     -118.618      83.219    -314.973
  H     -117.614      82.434    -316.204
  H     -119.493      77.222    -308.196
  H     -119.396      78.913    -307.765
  H     -118.743      78.361    -309.289

 3  4  5  6  7  8  9  10  11  12  13  23  28  29  30  31  32 0
 6-311+G(2d,p)
 ****
 33  34 0
 6-311+G(2d,p)
 ****
 1  2  14  15  16  17  18  19  20  21  22  24  25  26 0
 3-21G
 ****
 27  35  36  37  38  39  40  41  42  43  44  45 0
 3-21G
 ****


