%nproc=1
%NoSave
%Mem=1900MB
#P OB98/GEN NMR

erre ene a

0 1
  C       12.867      17.656     -28.352
  O       12.803      18.956     -28.903
  H       12.010      17.515     -27.688
  H       13.784      17.521     -27.774
  H       12.817      16.908     -29.149
  P       14.081      19.498     -29.710
  C       16.550      19.966     -29.116
  O       15.264      19.595     -28.626
  C       17.394      20.602     -28.009
  O       16.944      21.948     -27.752
  C       17.292      19.886     -26.672
  O       17.897      18.611     -26.653
  C       17.756      20.953     -25.692
  O       19.170      20.997     -25.529
  C       17.269      22.251     -26.380
  N       16.145      22.855     -25.675
  C       16.115      24.245     -25.659
  O       16.982      24.949     -26.178
  N       15.071      24.812     -24.983
  C       14.105      24.137     -24.296
  O       13.216      24.706     -23.673
  C       14.202      22.670     -24.327
  C       15.203      22.102     -25.006
  O       13.871      20.760     -30.490
  O       14.518      18.251     -30.610
  H       19.360      21.675     -24.851
  H       15.120      18.533     -31.340
  H       15.027      25.818     -24.969
  H       13.455      22.102     -23.790
  H       15.297      21.020     -25.042
  H       18.080      22.991     -26.411
  H       17.325      20.800     -24.700
  H       16.230      19.716     -26.459
  H       18.433      20.652     -28.353
  H       16.402      20.696     -29.919
  H       17.056      19.087     -29.525
  P       17.328      17.383     -25.805
  C       16.996      16.844     -23.285
  O       17.664      17.644     -24.255
  O       17.553      16.016     -26.365
  O       15.740      17.670     -25.859
  H       15.287      16.806     -25.880
  H       17.318      17.129     -22.305
  H       17.229      15.813     -23.451
  H       15.939      16.989     -23.370

 6  7  8  9  10  11  12  13  14  15  16  26  31  32  33  34  35 0
 6-311+G(2d,p)
 ****
 36  37 0
 6-311+G(2d,p)
 ****
 1  2  3  4  5  17  18  19  20  21  22  23  24  25 0
 3-21G
 ****
 27  28  29  30  38  39  40  41  42  43  44  45 0
 3-21G
 ****


