%nproc=1
%NoSave
%Mem=1900MB
#P OB98/GEN NMR

erre ene a

0 1
  C     -240.037    -529.052     314.952
  O     -239.301    -529.055     316.159
  H     -239.787    -528.140     314.397
  H     -241.113    -529.053     315.161
  H     -239.771    -529.923     314.349
  P     -239.555    -530.297     317.148
  C     -239.231    -528.941     319.313
  O     -238.698    -529.944     318.461
  C     -238.237    -528.594     320.425
  O     -238.120    -529.724     321.320
  C     -236.829    -528.276     319.900
  O     -236.263    -527.217     320.672
  C     -236.055    -529.556     320.156
  O     -234.655    -529.335     320.288
  C     -236.736    -530.080     321.426
  N     -236.797    -533.962     324.738
  C     -237.091    -532.651     324.874
  N     -237.065    -531.690     323.940
  C     -236.725    -532.200     322.731
  C     -236.392    -533.515     322.438
  C     -236.429    -534.413     323.517
  N     -236.097    -535.746     323.391
  N     -236.054    -533.633     321.106
  C     -236.200    -532.427     320.599
  N     -236.592    -531.526     321.549
  O     -239.305    -531.649     316.567
  O     -241.057    -530.030     317.636
  H     -234.243    -530.170     320.601
  H     -241.195    -529.088     317.852
  H     -237.389    -532.340     325.881
  H     -236.031    -532.152     319.561
  H     -236.321    -529.630     322.337
  H     -236.211    -530.256     319.325
  H     -236.831    -528.003     318.844
  H     -238.637    -527.752     321.005
  H     -240.171    -529.294     319.767
  H     -236.158    -536.334     324.206
  H     -235.830    -536.109     322.480
  H     -239.450    -528.057     318.708
  P     -235.895    -525.855     319.925
  C     -233.413    -525.441     320.573
  O     -234.779    -525.077     320.799
  O     -237.031    -525.017     319.462
  O     -235.019    -526.374     318.670
  H     -235.223    -525.815     317.900
  H     -232.779    -524.858     321.208
  H     -233.159    -525.257     319.550
  H     -233.280    -526.480     320.792

 6  7  8  9  10  11  12  13  14  15  25  28  32  33  34  35 0
 6-311+G(2d,p)
 ****
 36  39  40 0
 6-311+G(2d,p)
 ****
 1  2  3  4  5  16  17  18  19  20  21  22  23  24 0
 3-21G
 ****
 26  27  29  30  31  37  38  41  42  43  44  45  46  47 0
 3-21G
 ****
 48 0
 3-21G
 ****


