%nproc=1
%NoSave
%Mem=1900MB
#P OB98/GEN NMR

erre ene a

0 1
  C     -250.187    -106.156    -114.278
  O     -249.680    -107.160    -113.422
  H     -250.138    -106.521    -115.307
  H     -249.583    -105.250    -114.202
  H     -251.229    -105.934    -114.036
  P     -249.638    -106.870    -111.844
  C     -247.235    -107.816    -112.063
  O     -248.437    -107.796    -111.307
  C     -246.028    -107.873    -111.131
  O     -245.892    -106.650    -110.376
  C     -246.082    -108.971    -110.077
  O     -245.856    -110.271    -110.591
  C     -244.963    -108.509    -109.160
  O     -243.691    -108.812    -109.759
  C     -245.219    -106.984    -109.128
  N     -246.028    -106.573    -107.982
  C     -245.423    -106.661    -106.724
  O     -244.270    -107.074    -106.608
  N     -246.151    -106.308    -105.613
  C     -247.382    -105.925    -105.745
  N     -248.058    -105.594    -104.610
  C     -248.066    -105.836    -107.049
  C     -247.341    -106.168    -108.113
  O     -250.935    -107.016    -111.117
  O     -248.996    -105.409    -111.721
  H     -243.012    -108.653    -109.079
  H     -248.958    -105.176    -110.762
  H     -249.104    -105.540    -107.102
  H     -247.773    -106.134    -109.107
  H     -244.273    -106.429    -109.111
  H     -244.982    -108.988    -108.180
  H     -247.027    -108.931    -109.518
  H     -245.132    -107.963    -111.761
  H     -247.565    -105.665    -103.730
  H     -247.208    -106.919    -112.688
  H     -249.042    -105.358    -104.611
  H     -247.214    -108.699    -112.709
  P     -247.135    -111.238    -110.717
  C     -245.318    -112.940    -109.927
  O     -246.591    -112.731    -110.520
  O     -247.498    -111.155    -112.271
  O     -248.289    -110.882    -109.836
  H     -248.227    -110.525    -112.422
  H     -245.117    -113.990    -109.874
  H     -245.312    -112.526    -108.941
  H     -244.566    -112.462    -110.519

 6  7  8  9  10  11  12  13  14  15  16  26  30  31  32  33  35 0
 6-311+G(2d,p)
 ****
 37  38 0
 6-311+G(2d,p)
 ****
 1  2  3  4  5  17  18  19  20  21  22  23  24  25 0
 3-21G
 ****
 27  28  29  34  36  39  40  41  42  43  44  45  46 0
 3-21G
 ****


