%nproc=1
%NoSave
%Mem=1900MB
#P OB98/GEN NMR

erre ene a

0 1
  C       62.831    -176.539    -325.934
  O       62.379    -175.756    -324.827
  P       60.830    -175.934    -324.427
  C       58.722    -174.441    -324.654
  O       60.006    -174.770    -325.167
  C       58.152    -173.204    -325.355
  O       59.005    -172.041    -325.124
  C       58.015    -173.362    -326.877
  O       56.840    -172.637    -327.264
  C       59.270    -172.671    -327.384
  O       59.216    -172.353    -328.765
  C       59.321    -171.490    -326.422
  N       61.863    -167.355    -327.994
  C       60.586    -167.758    -328.186
  N       59.986    -168.882    -327.736
  C       60.846    -169.617    -327.012
  C       62.175    -169.340    -326.730
  C       62.685    -168.140    -327.259
  N       63.989    -167.728    -327.090
  N       62.737    -170.350    -325.971
  C       61.778    -171.255    -325.862
  N       60.600    -170.819    -326.403
  O       60.797    -175.511    -322.885
  O       60.310    -177.314    -324.655
  H       60.065    -171.952    -329.045
  H       60.794    -176.305    -322.315
  H       59.970    -167.095    -328.790
  H       61.882    -172.228    -325.412
  H       58.562    -170.733    -326.655
  H       60.132    -173.333    -327.233
  H       57.917    -174.404    -327.202
  H       57.171    -172.979    -324.914
  H       58.785    -174.248    -323.579
  H       64.264    -166.857    -327.507
  H       64.637    -168.292    -326.556
  H       58.060    -175.305    -324.773
  P       55.510    -173.458    -327.630
  C       55.032    -175.362    -329.279
  O       55.897    -174.296    -328.943
  O       54.610    -172.289    -328.259
  O       54.857    -174.190    -326.507
  H       55.105    -171.788    -328.930
  H       55.361    -175.791    -330.230
  H       54.008    -174.998    -329.392
  H       55.075    -176.135    -328.507
  H       63.868    -176.343    -326.110
  H       62.266    -176.283    -326.806
  H       62.697    -177.578    -325.715

 3  4  5  6  7  8  9  10  11  12  22  25  29  30  31  32 0
 6-311+G(2d,p)
 ****
 33  36  37 0
 6-311+G(2d,p)
 ****
 1  2  13  14  15  16  17  18  19  20  21  23  24  26 0
 3-21G
 ****
 27  28  34  35  38  39  40  41  42  43  44  45  46  47  48 0
 3-21G
 ****


