%nproc=1
%NoSave
%Mem=1900MB
#P OB98/GEN NMR

erre ene a

0 1
  C     -155.923    -264.099      82.966
  O     -155.628    -265.445      83.305
  H     -155.108    -263.706      82.351
  H     -156.002    -263.480      83.864
  H     -156.854    -264.045      82.396
  P     -156.601    -266.195      84.339
  C     -157.345    -265.668      86.762
  O     -156.357    -265.481      85.750
  C     -156.750    -265.378      88.136
  O     -156.493    -263.966      88.283
  C     -157.680    -265.748      89.280
  O     -157.698    -267.147      89.488
  C     -157.087    -264.928      90.409
  O     -155.932    -265.569      90.967
  C     -156.690    -263.626      89.672
  N     -157.694    -262.572      89.810
  C     -157.566    -261.755      90.945
  O     -156.648    -261.941      91.748
  N     -158.497    -260.766      91.142
  C     -159.450    -260.590      90.279
  N     -160.346    -259.599      90.538
  C     -159.611    -261.422      89.070
  C     -158.708    -262.383      88.903
  O     -156.521    -267.690      84.379
  O     -158.059    -265.680      83.923
  H     -156.272    -266.278      91.546
  H     -158.446    -266.269      83.246
  H     -160.418    -261.239      88.381
  H     -158.753    -263.039      88.034
  H     -155.732    -263.245      90.045
  H     -157.802    -264.779      91.218
  H     -158.690    -265.373      89.082
  H     -155.789    -265.906      88.220
  H     -160.200    -259.054      91.388
  H     -157.668    -266.718      86.704
  H     -161.071    -259.308      89.900
  H     -158.211    -265.023      86.578
  P     -159.089    -267.929      89.661
  C     -161.079    -267.730      91.287
  O     -159.899    -267.105      90.775
  O     -158.972    -269.395      89.906
  O     -159.874    -267.581      88.309
  H     -159.509    -268.072      87.539
  H     -161.532    -267.093      92.017
  H     -160.820    -268.664      91.740
  H     -161.768    -267.901      90.486

 6  7  8  9  10  11  12  13  14  15  16  26  30  31  32  33  35 0
 6-311+G(2d,p)
 ****
 37  38 0
 6-311+G(2d,p)
 ****
 1  2  3  4  5  17  18  19  20  21  22  23  24  25 0
 3-21G
 ****
 27  28  29  34  36  39  40  41  42  43  44  45  46 0
 3-21G
 ****


