%nproc=1
%NoSave
%Mem=1900MB
#P OB98/GEN NMR

erre ene a

0 1
  C     -841.874     986.141     863.641
  O     -841.475     987.333     862.998
  H     -841.384     985.301     863.148
  H     -842.956     986.018     863.563
  H     -841.568     986.140     864.697
  P     -841.798     988.732     863.690
  C     -844.240     989.088     862.929
  O     -843.383     988.741     864.009
  C     -845.705     989.031     863.398
  O     -845.862     989.838     864.614
  C     -846.721     989.563     862.358
  O     -847.939     988.798     862.447
  C     -846.935     990.975     862.840
  O     -848.119     991.534     862.340
  C     -846.916     990.751     864.352
  N     -846.746     992.022     865.061
  C     -847.812     992.945     864.986
  O     -848.832     992.746     864.325
  N     -847.584     994.134     865.612
  C     -846.417     994.541     866.210
  O     -846.281     995.672     866.668
  C     -845.334     993.560     866.217
  C     -845.552     992.361     865.658
  O     -841.320     989.952     862.957
  O     -841.157     988.622     865.155
  H     -848.351     992.356     862.838
  H     -841.008     989.510     865.546
  H     -848.351     994.829     865.563
  H     -844.402     993.830     866.697
  H     -844.775     991.601     865.651
  H     -847.849     990.285     864.703
  H     -846.106     991.626     862.513
  H     -846.344     989.511     861.322
  H     -845.941     987.993     863.672
  H     -844.081     988.363     862.106
  H     -843.997     990.105     862.587
  P     -848.415     987.813     861.284
  C     -849.899     989.302     859.787
  O     -848.631     988.630     859.908
  O     -849.563     986.946     861.640
  O     -847.121     986.906     860.976
  H     -847.394     985.974     860.897
  H     -849.945     989.811     858.847
  H     -850.004     990.011     860.582
  H     -850.690     988.584     859.842

 6  7  8  9  10  11  12  13  14  15  16  26  31  32  33  34  35 0
 6-311+G(2d,p)
 ****
 36  37 0
 6-311+G(2d,p)
 ****
 1  2  3  4  5  17  18  19  20  21  22  23  24  25 0
 3-21G
 ****
 27  28  29  30  38  39  40  41  42  43  44  45 0
 3-21G
 ****


