%nproc=1
%NoSave
%Mem=1900MB
#P OB98/GEN NMR

erre ene a

0 1
  C      164.254     229.665     100.193
  O      162.920     230.096     100.045
  H      164.383     228.733      99.637
  H      164.468     229.477     101.248
  H      164.955     230.407      99.802
  P      162.535     231.587     100.482
  C      161.984     231.886      97.976
  O      162.521     232.480      99.151
  C      161.943     232.895      96.824
  O      160.866     233.838      97.062
  C      163.238     233.712      96.745
  O      163.511     234.158      95.420
  C      162.928     234.917      97.617
  O      163.740     236.051      97.316
  C      161.443     235.126      97.331
  N      157.169     237.455      98.843
  C      157.576     237.123      97.566
  N      156.732     237.452      96.560
  N      158.717     236.542      97.299
  C      159.491     236.339      98.391
  C      159.205     236.644      99.701
  C      157.924     237.258      99.992
  O      157.523     237.594     101.100
  N      160.240     236.298     100.536
  C      161.150     235.786      99.730
  N      160.732     235.766      98.422
  O      163.851     232.111     101.234
  O      161.320     231.715     101.349
  H      163.523     236.333      96.407
  H      163.629     232.847     101.832
  H      156.267     237.873      98.996
  H      162.115     235.403     100.043
  H      161.304     235.748      96.438
  H      163.128     234.648      98.660
  H      155.947     238.069      96.708
  H      164.101     233.168      97.123
  H      157.141     237.503      95.623
  H      161.714     232.382      95.883
  H      160.977     231.542      98.225
  H      162.565     231.006      97.698
  P      165.016     234.551      95.037
  C      165.677     232.517      93.477
  O      165.847     233.234      94.680
  O      165.644     235.034      96.424
  O      165.132     235.597      93.973
  H      165.882     235.981      96.381
  H      166.340     231.677      93.465
  H      165.896     233.156      92.647
  H      164.666     232.174      93.406

 6  7  8  9  10  11  12  13  14  15  26  29  33  34 0
 6-311+G(2d,p)
 ****
 36  38  39  40  41 0
 6-311+G(2d,p)
 ****
 1  2  3  4  5  16  17  18  19  20  21  22  23  24  25 0
 3-21G
 ****
 27  28  30  31  32  35  37  42  43  44  45  46  47 0
 3-21G
 ****
 48  49 0
 3-21G
 ****


