%nproc=1
%NoSave
%Mem=1900MB
#P OB98/GEN NMR

erre ene a

0 1
  C       11.635    -180.602    -349.835
  O       12.439    -181.744    -349.533
  P       12.727    -182.299    -348.065
  C       10.702    -183.479    -346.876
  O       11.780    -183.557    -347.798
  C        9.881    -184.782    -346.869
  O        9.315    -184.984    -348.201
  C       10.739    -186.018    -346.555
  O       10.108    -186.940    -345.672
  C       11.122    -186.528    -347.935
  O       11.540    -187.882    -347.938
  C        9.874    -186.202    -348.751
  N       11.234    -188.476    -353.118
  C       11.233    -188.982    -351.832
  N       11.659    -190.254    -351.680
  N       10.859    -188.296    -350.786
  C       10.523    -187.014    -351.067
  C       10.508    -186.394    -352.295
  C       10.876    -187.177    -353.452
  O       10.878    -186.782    -354.621
  N       10.106    -185.083    -352.188
  C        9.908    -184.907    -350.893
  N       10.140    -186.054    -350.173
  O       12.807    -181.274    -346.984
  O       14.190    -182.975    -348.199
  H       11.513    -188.205    -348.861
  H       14.627    -182.860    -347.327
  H       11.513    -189.059    -353.891
  H        9.581    -183.978    -350.433
  H        9.114    -186.981    -348.669
  H       11.977    -185.928    -348.282
  H       12.075    -190.797    -352.420
  H       11.650    -185.729    -346.010
  H       11.863    -190.543    -350.722
  H        9.053    -184.673    -346.159
  H       10.076    -182.649    -347.214
  H       11.062    -183.235    -345.877
  P       10.180    -187.007    -344.075
  C        8.108    -185.525    -343.751
  O        8.705    -186.780    -343.488
  O       10.945    -185.671    -343.639
  O       10.886    -188.207    -343.536
  H       11.774    -185.902    -343.179
  H        7.246    -185.399    -343.087
  H        7.766    -185.487    -344.786
  H        8.820    -184.713    -343.565
  H       11.610    -180.454    -350.894
  H       12.053    -179.737    -349.363
  H       10.640    -180.760    -349.473

 3  4  5  6  7  8  9  10  11  12  23  26  30  31 0
 6-311+G(2d,p)
 ****
 33  35  36  37  38 0
 6-311+G(2d,p)
 ****
 1  2  13  14  15  16  17  18  19  20  21  22  24  25 0
 3-21G
 ****
 27  28  29  32  34  39  40  41  42  43  44  45  46  47  48  49 0
 3-21G
 ****


