%nproc=1
%NoSave
%Mem=1900MB
#P OB98/GEN NMR

erre ene a

0 1
  C       99.291     -65.426      79.059
  O      100.307     -64.464      78.873
  P      101.727     -64.853      78.237
  C      102.299     -62.491      77.397
  O      102.621     -63.521      78.319
  C      103.129     -61.233      77.657
  O      102.663     -60.584      78.872
  C      104.635     -61.482      77.813
  O      105.292     -60.334      77.266
  C      104.804     -61.523      79.320
  O      106.149     -61.309      79.728
  C      103.799     -60.447      79.752
  N      103.428     -60.579      81.156
  C      104.431     -60.334      82.097
  O      105.584     -60.099      81.729
  N      104.123     -60.415      83.432
  C      102.941     -60.808      83.790
  N      102.689     -60.864      85.127
  C      101.891     -61.198      82.830
  C      102.194     -61.047      81.542
  O      101.667     -65.488      76.889
  O      102.396     -65.785      79.351
  H      106.196     -61.414      80.703
  H      102.003     -66.693      79.322
  H      100.941     -61.574      83.178
  H      101.490     -61.305      80.765
  H      104.217     -59.444      79.597
  H      104.494     -62.506      79.698
  H      104.982     -62.396      77.326
  H      102.951     -60.535      76.829
  H      103.432     -60.573      85.751
  H      101.241     -62.244      77.521
  H      101.781     -61.077      85.509
  H      102.442     -62.848      76.372
  P      106.103     -60.416      75.887
  C      105.268     -58.179      74.969
  O      106.391     -58.912      75.423
  O      105.488     -61.289      74.843
  O      107.555     -60.950      76.312
  H      108.027     -61.269      75.520
  H      105.521     -57.115      74.952
  H      104.410     -58.328      75.630
  H      105.006     -58.498      73.957
  H       98.432     -64.958      79.494
  H       99.645     -66.198      79.710
  H       99.025     -65.851      78.114

 3  4  5  6  7  8  9  10  11  12  13  23  27  28  29  30  32 0
 6-311+G(2d,p)
 ****
 34  35 0
 6-311+G(2d,p)
 ****
 1  2  14  15  16  17  18  19  20  21  22  24  25  26 0
 3-21G
 ****
 31  33  36  37  38  39  40  41  42  43  44  45  46 0
 3-21G
 ****


