%nproc=1
%NoSave
%Mem=1900MB
#P OB98/GEN NMR

erre ene a

0 1
  C      639.425    -544.881     270.225
  O      639.868    -543.651     270.765
  H      640.176    -545.659     270.389
  H      638.496    -545.171     270.730
  H      639.226    -544.770     269.158
  P      641.244    -543.061     270.183
  C      642.840    -544.438     271.692
  O      642.365    -544.202     270.375
  C      644.288    -544.936     271.637
  O      644.305    -546.224     270.974
  C      645.259    -544.003     270.902
  O      646.335    -543.622     271.769
  C      645.832    -544.862     269.783
  O      647.235    -544.658     269.573
  C      645.532    -546.283     270.237
  N      648.183    -548.812     266.687
  C      648.550    -548.312     267.891
  N      647.775    -547.746     268.836
  C      646.487    -547.743     268.450
  C      645.956    -548.233     267.266
  C      646.874    -548.771     266.351
  N      646.505    -549.230     265.107
  N      644.584    -548.043     267.227
  C      644.298    -547.410     268.347
  N      645.421    -547.180     269.108
  O      641.659    -541.950     271.263
  O      641.156    -542.486     268.809
  H      647.484    -545.200     268.799
  H      641.899    -541.122     270.807
  H      649.614    -548.375     268.117
  H      643.318    -547.049     268.633
  H      646.307    -546.683     270.911
  H      645.312    -544.626     268.850
  H      644.770    -543.109     270.502
  H      644.630    -545.109     272.669
  H      642.221    -545.200     272.177
  H      647.241    -549.497     264.463
  H      645.550    -549.104     264.805
  H      642.771    -543.513     272.264
  P      646.155    -542.246     272.585
  C      647.874    -540.724     271.350
  O      646.509    -541.043     271.576
  O      647.390    -542.254     273.600
  O      644.851    -542.132     273.293
  H      647.181    -541.735     274.391
  H      647.940    -539.909     270.660
  H      648.377    -541.577     270.944
  H      648.333    -540.447     272.276

 6  7  8  9  10  11  12  13  14  15  25  28  32  33  34  35 0
 6-311+G(2d,p)
 ****
 36  39  40 0
 6-311+G(2d,p)
 ****
 1  2  3  4  5  16  17  18  19  20  21  22  23  24 0
 3-21G
 ****
 26  27  29  30  31  37  38  41  42  43  44  45  46  47  48 0
 3-21G
 ****


