%nproc=1
%NoSave
%Mem=1900MB
#P OB98/GEN NMR

erre ene a

0 1
  C     1365.482    -359.422     170.538
  O     1366.831    -359.762     170.264
  P     1367.726    -358.908     169.224
  C     1367.590    -358.482     166.695
  O     1366.987    -359.132     167.800
  C     1366.899    -358.875     165.404
  O     1365.588    -358.241     165.395
  C     1367.546    -358.447     164.111
  O     1368.566    -359.304     163.631
  C     1366.376    -358.475     163.141
  O     1366.117    -359.831     162.740
  C     1365.236    -357.956     163.995
  N     1362.821    -354.387     161.240
  C     1362.814    -355.727     161.175
  N     1363.486    -356.625     161.948
  C     1364.230    -355.982     162.879
  C     1364.332    -354.605     163.039
  C     1363.564    -353.787     162.193
  N     1363.574    -352.416     162.266
  N     1365.188    -354.327     164.107
  C     1365.570    -355.489     164.538
  N     1365.018    -356.528     163.844
  O     1369.182    -359.230     169.270
  O     1367.385    -357.383     169.580
  H     1366.849    -360.085     162.157
  H     1368.075    -356.813     169.169
  H     1362.180    -356.167     160.417
  H     1366.251    -355.671     165.382
  H     1364.283    -358.484     163.821
  H     1366.548    -357.903     162.219
  H     1367.929    -357.400     164.151
  H     1366.722    -359.970     165.427
  H     1368.630    -358.808     166.643
  H     1362.909    -351.906     161.673
  H     1364.018    -351.977     163.072
  H     1367.583    -357.403     166.834
  P     1369.353    -358.893     162.299
  C     1368.524    -357.821     160.055
  O     1368.229    -358.554     161.218
  O     1370.399    -359.845     161.841
  O     1369.947    -357.440     162.666
  H     1369.267    -356.748     162.808
  H     1367.654    -357.869     159.374
  H     1369.376    -358.298     159.535
  H     1368.748    -356.800     160.277
  H     1365.078    -360.112     171.249
  H     1364.912    -359.467     169.634
  H     1365.438    -358.430     170.938

 3  4  5  6  7  8  9  10  11  12  22  25  29  30  31  32 0
 6-311+G(2d,p)
 ****
 33  36  37 0
 6-311+G(2d,p)
 ****
 1  2  13  14  15  16  17  18  19  20  21  23  24  26 0
 3-21G
 ****
 27  28  34  35  38  39  40  41  42  43  44  45  46  47  48 0
 3-21G
 ****


