%nproc=1
%NoSave
%Mem=1900MB
#P OB98/GEN NMR

erre ene a

0 1
  C       98.897      38.029      47.298
  O      100.054      38.880      47.365
  P       99.851      40.476      47.367
  C      100.466      40.880      49.877
  O      100.779      41.110      48.511
  C      101.250      41.847      50.768
  O      100.566      42.047      52.025
  C      102.642      41.366      51.146
  O      103.564      41.517      50.080
  C      102.953      42.250      52.346
  O      103.438      43.538      51.924
  C      101.569      42.382      53.011
  N      101.438      41.553      54.208
  C      101.282      42.229      55.412
  O      101.309      43.456      55.506
  N      101.128      41.443      56.522
  C      101.181      40.079      56.553
  O      101.055      39.430      57.584
  C      101.430      39.424      55.261
  C      101.551      40.179      54.167
  O       98.387      40.625      48.007
  O       99.913      41.138      46.031
  H      103.632      44.043      52.737
  H       97.967      41.441      47.676
  H      100.985      41.912      57.402
  H      101.503      38.344      55.245
  H      101.734      39.710      53.203
  H      101.381      43.426      53.287
  H      103.719      41.818      52.998
  H      102.599      40.319      51.473
  H      101.304      42.817      50.253
  H      100.735      39.853      50.142
  H       99.389      41.009      50.023
  P      104.868      40.578      50.114
  C      103.730      38.937      48.426
  O      104.834      39.761      48.736
  O      104.448      39.516      51.238
  O      106.122      41.330      50.403
  H      103.493      39.336      51.232
  H      102.799      39.344      48.828
  H      103.899      37.939      48.836
  H      103.643      38.863      47.337
  H       99.207      37.005      47.306
  H       98.357      38.231      46.397
  H       98.266      38.218      48.141

 3  4  5  6  7  8  9  10  11  12  13  23  28  29  30  31  32 0
 6-311+G(2d,p)
 ****
 33  34 0
 6-311+G(2d,p)
 ****
 1  2  14  15  16  17  18  19  20  21  22  24  25  26 0
 3-21G
 ****
 27  35  36  37  38  39  40  41  42  43  44  45 0
 3-21G
 ****


