%nproc=1
%NoSave
%Mem=1900MB
#P OB98/GEN NMR

erre ene a

0 1
  C      -32.118     183.103     -81.267
  O      -32.498     182.892     -79.918
  P      -31.573     183.410     -78.720
  C      -29.171     183.041     -77.902
  O      -30.189     182.594     -78.790
  C      -27.997     182.065     -77.863
  O      -27.606     181.735     -79.224
  C      -26.743     182.590     -77.145
  O      -26.125     181.466     -76.505
  C      -25.869     183.067     -78.295
  O      -24.495     183.164     -77.949
  C      -26.194     181.995     -79.339
  N      -22.825     181.638     -83.182
  C      -22.818     181.128     -81.929
  N      -23.742     181.291     -80.958
  C      -24.752     182.072     -81.376
  C      -24.874     182.691     -82.614
  C      -23.859     182.436     -83.546
  N      -23.861     182.922     -84.838
  N      -26.027     183.465     -82.651
  C      -26.575     183.311     -81.462
  N      -25.873     182.424     -80.683
  O      -32.221     183.422     -77.373
  O      -31.145     184.889     -79.164
  H      -23.991     183.408     -78.748
  H      -31.632     185.545     -78.636
  H      -21.968     180.496     -81.681
  H      -27.471     183.809     -81.117
  H      -25.653     181.064     -79.143
  H      -26.208     184.058     -78.631
  H      -26.942     183.384     -76.413
  H      -28.338     181.131     -77.392
  H      -29.607     183.124     -76.898
  H      -23.152     182.568     -85.469
  H      -24.734     183.283     -85.228
  H      -28.821     184.037     -78.207
  P      -24.853     181.680     -75.560
  C      -22.694     183.005     -75.953
  O      -23.635     182.106     -76.512
  O      -24.559     180.556     -74.614
  O      -25.194     183.039     -74.772
  H      -24.630     183.110     -73.985
  H      -23.085     184.030     -76.010
  H      -21.762     182.951     -76.531
  H      -22.480     182.759     -74.907
  H      -32.860     182.688     -81.916
  H      -31.177     182.628     -81.451
  H      -32.029     184.153     -81.453

 3  4  5  6  7  8  9  10  11  12  22  25  29  30  31  32 0
 6-311+G(2d,p)
 ****
 33  36  37 0
 6-311+G(2d,p)
 ****
 1  2  13  14  15  16  17  18  19  20  21  23  24  26 0
 3-21G
 ****
 27  28  34  35  38  39  40  41  42  43  44  45  46  47  48 0
 3-21G
 ****


