%nproc=1
%NoSave
%Mem=1900MB
#P OB98/GEN NMR

erre ene a

0 1
  C      107.889    -168.194    -115.686
  O      107.518    -168.303    -117.049
  P      105.946    -168.426    -117.368
  C      106.242    -170.277    -119.186
  O      105.717    -169.914    -117.920
  C      106.952    -171.630    -119.079
  O      107.729    -171.691    -117.867
  C      106.013    -172.829    -119.046
  O      105.605    -173.176    -120.357
  C      106.890    -173.881    -118.374
  O      107.793    -174.480    -119.322
  C      107.654    -173.044    -117.337
  N      108.026    -174.770    -112.600
  C      108.731    -175.128    -113.737
  N      109.704    -176.049    -113.571
  N      108.502    -174.628    -114.921
  C      107.490    -173.730    -114.937
  C      106.710    -173.306    -113.887
  C      107.008    -173.827    -112.571
  O      106.479    -173.470    -111.522
  N      105.765    -172.401    -114.294
  C      105.996    -172.255    -115.584
  N      107.045    -173.022    -116.020
  O      105.763    -167.499    -118.654
  O      105.037    -168.042    -116.244
  H      108.417    -175.057    -118.849
  H      105.422    -166.619    -118.400
  H      108.257    -175.176    -111.712
  H      105.449    -171.593    -116.238
  H      108.685    -173.395    -117.206
  H      106.300    -174.695    -117.946
  H      109.922    -176.496    -112.693
  H      105.143    -172.615    -118.413
  H      110.230    -176.325    -114.392
  H      107.648    -171.710    -119.924
  H      106.959    -169.519    -119.511
  H      105.425    -170.328    -119.913
  P      104.062    -172.949    -120.736
  C      103.879    -175.518    -121.068
  O      103.311    -174.344    -120.515
  O      104.098    -172.776    -122.326
  O      103.431    -171.770    -120.074
  H      103.425    -172.123    -122.598
  H      103.607    -176.369    -120.444
  H      104.970    -175.452    -121.125
  H      103.476    -175.672    -122.073
  H      108.954    -168.119    -115.611
  H      107.554    -169.060    -115.155
  H      107.440    -167.320    -115.263

 3  4  5  6  7  8  9  10  11  12  23  26  30  31 0
 6-311+G(2d,p)
 ****
 33  35  36  37  38 0
 6-311+G(2d,p)
 ****
 1  2  13  14  15  16  17  18  19  20  21  22  24  25 0
 3-21G
 ****
 27  28  29  32  34  39  40  41  42  43  44  45  46  47  48  49 0
 3-21G
 ****


