%nproc=1
%NoSave
%Mem=1900MB
#P OB98/GEN NMR

erre ene a

0 1
  C     -344.800    -749.236    -859.638
  O     -345.186    -749.939    -858.473
  H     -343.985    -749.764    -860.144
  H     -345.655    -749.172    -860.311
  H     -344.485    -748.221    -859.367
  P     -344.039    -750.232    -857.402
  C     -344.872    -748.640    -855.523
  O     -344.691    -749.986    -855.945
  C     -345.978    -748.562    -854.475
  O     -347.261    -748.828    -855.083
  C     -345.857    -749.567    -853.337
  O     -344.907    -749.162    -852.365
  C     -347.271    -749.532    -852.781
  O     -347.438    -748.388    -851.931
  C     -348.133    -749.369    -854.059
  N     -351.196    -753.304    -852.882
  C     -350.819    -752.219    -852.168
  N     -349.994    -751.227    -852.540
  C     -349.552    -751.398    -853.814
  C     -349.856    -752.464    -854.640
  C     -350.709    -753.460    -854.137
  N     -351.088    -754.575    -854.862
  N     -349.231    -752.310    -855.866
  C     -348.548    -751.190    -855.761
  N     -348.710    -750.607    -854.528
  O     -343.035    -748.985    -857.568
  O     -343.309    -751.525    -857.570
  H     -347.097    -747.618    -852.423
  H     -342.120    -749.290    -857.438
  H     -351.248    -752.127    -851.177
  H     -347.949    -750.748    -856.552
  H     -348.937    -748.635    -853.898
  H     -347.522    -750.415    -852.195
  H     -345.633    -750.571    -853.722
  H     -345.991    -747.528    -854.093
  H     -345.149    -748.021    -856.388
  H     -351.851    -755.131    -854.531
  H     -350.719    -754.661    -855.806
  H     -343.928    -748.262    -855.113
  P     -344.543    -750.192    -851.190
  C     -342.342    -751.164    -852.193
  O     -342.943    -750.335    -851.193
  O     -345.027    -751.594    -851.794
  O     -345.180    -749.899    -849.878
  H     -345.248    -752.224    -851.071
  H     -341.279    -751.160    -852.068
  H     -342.588    -750.787    -853.164
  H     -342.709    -752.164    -852.095

 6  7  8  9  10  11  12  13  14  15  25  28  32  33  34  35 0
 6-311+G(2d,p)
 ****
 36  39  40 0
 6-311+G(2d,p)
 ****
 1  2  3  4  5  16  17  18  19  20  21  22  23  24 0
 3-21G
 ****
 26  27  29  30  31  37  38  41  42  43  44  45  46  47  48 0
 3-21G
 ****


