%nproc=1
%NoSave
%Mem=1900MB
#P OB98/GEN NMR

erre ene a

0 1
  C     -353.841    -444.774     442.499
  O     -355.175    -444.753     442.036
  H     -353.430    -445.786     442.433
  H     -353.237    -444.112     441.869
  H     -353.788    -444.418     443.531
  P     -356.234    -445.653     442.834
  C     -358.828    -445.695     443.011
  O     -357.681    -445.066     442.456
  C     -359.953    -444.675     443.149
  O     -359.570    -443.635     444.078
  C     -360.318    -443.959     441.851
  O     -361.170    -444.741     441.027
  C     -361.036    -442.740     442.400
  O     -362.370    -443.109     442.808
  C     -360.181    -442.394     443.622
  N     -359.191    -437.506     442.473
  C     -360.352    -438.169     442.671
  N     -360.528    -439.472     442.967
  C     -359.350    -440.107     443.056
  C     -358.088    -439.564     442.872
  C     -358.034    -438.190     442.575
  N     -356.850    -437.511     442.357
  N     -357.110    -440.534     443.011
  C     -357.776    -441.634     443.311
  N     -359.132    -441.428     443.338
  O     -356.046    -445.197     444.359
  O     -356.094    -447.130     442.656
  H     -362.702    -442.385     443.370
  H     -356.387    -445.884     444.957
  H     -361.255    -437.574     442.578
  H     -357.325    -442.592     443.509
  H     -360.774    -441.995     444.452
  H     -361.140    -441.940     441.663
  H     -359.420    -443.635     441.307
  H     -360.827    -445.193     443.565
  H     -358.576    -446.091     444.002
  H     -356.930    -436.588     441.968
  H     -355.998    -438.047     442.279
  H     -359.136    -446.520     442.360
  P     -361.613    -444.112     439.621
  C     -363.273    -445.011     437.833
  O     -362.263    -445.312     438.789
  O     -360.219    -443.853     438.879
  O     -362.436    -442.869     439.725
  H     -360.297    -443.130     438.229
  H     -363.602    -445.915     437.365
  H     -362.876    -444.350     437.091
  H     -364.100    -444.542     438.324

 6  7  8  9  10  11  12  13  14  15  25  28  32  33  34  35 0
 6-311+G(2d,p)
 ****
 36  39  40 0
 6-311+G(2d,p)
 ****
 1  2  3  4  5  16  17  18  19  20  21  22  23  24 0
 3-21G
 ****
 26  27  29  30  31  37  38  41  42  43  44  45  46  47 0
 3-21G
 ****
 48 0
 3-21G
 ****


