%nproc=1
%NoSave
%Mem=1900MB
#P OB98/GEN NMR

erre ene a

0 1
  C      163.104     -80.482      -5.001
  O      163.232     -80.210      -3.621
  P      163.186     -81.345      -2.496
  C      165.165     -80.491      -1.045
  O      164.668     -81.518      -1.894
  C      166.634     -80.142      -1.323
  O      166.768     -79.670      -2.681
  C      167.083     -78.988      -0.420
  O      167.514     -79.244       0.902
  C      168.059     -78.179      -1.266
  O      169.423     -78.496      -0.982
  C      167.703     -78.580      -2.700
  N      168.588     -74.165      -5.032
  C      169.493     -75.107      -4.580
  N      170.791     -74.730      -4.583
  N      169.150     -76.293      -4.147
  C      167.808     -76.486      -4.112
  C      166.818     -75.635      -4.547
  C      167.214     -74.346      -5.063
  O      166.440     -73.451      -5.395
  N      165.566     -76.137      -4.290
  C      165.797     -77.274      -3.665
  N      167.143     -77.508      -3.499
  O      162.392     -82.571      -2.811
  O      162.424     -80.571      -1.300
  H      169.596     -79.398      -1.311
  H      161.879     -81.228      -0.827
  H      168.909     -73.238      -5.285
  H      165.032     -77.941      -3.284
  H      168.592     -78.943      -3.232
  H      167.945     -77.106      -1.072
  H      171.077     -73.781      -4.773
  H      166.213     -78.331      -0.291
  H      171.460     -75.324      -4.105
  H      167.271     -81.029      -1.252
  H      165.037     -80.829      -0.011
  H      164.555     -79.590      -1.165
  P      166.605     -79.218       2.219
  C      167.394     -80.972       3.908
  O      166.533     -80.703       2.814
  O      165.119     -78.981       1.670
  O      166.967     -78.159       3.211
  H      164.562     -78.606       2.376
  H      167.488     -82.053       4.030
  H      166.967     -80.545       4.822
  H      168.388     -80.544       3.737
  H      163.166     -79.567      -5.552
  H      162.158     -80.947      -5.187
  H      163.891     -81.139      -5.310

 3  4  5  6  7  8  9  10  11  12  23  26  30  31 0
 6-311+G(2d,p)
 ****
 33  35  36  37  38 0
 6-311+G(2d,p)
 ****
 1  2  13  14  15  16  17  18  19  20  21  22  24  25 0
 3-21G
 ****
 27  28  29  32  34  39  40  41  42  43  44  45  46  47  48  49 0
 3-21G
 ****


