%nproc=1
%NoSave
%Mem=1900MB
#P OB98/GEN NMR

erre ene a

0 1
  C       76.690    -895.010     657.851
  O       76.355    -894.060     656.864
  H       77.195    -894.530     658.701
  H       75.773    -895.480     658.213
  H       77.342    -895.780     657.426
  P       77.572    -893.220     656.225
  C       78.697    -895.080     654.813
  O       77.912    -893.880     654.799
  C       78.215    -896.020     653.702
  O       77.022    -896.720     654.164
  C       77.868    -895.330     652.364
  O       78.649    -895.870     651.306
  C       76.411    -895.680     652.114
  O       76.127    -895.990     650.756
  C       76.183    -896.900     653.020
  N       71.674    -898.900     651.698
  C       72.949    -899.240     651.367
  N       74.108    -898.740     651.836
  C       73.867    -897.790     652.764
  C       72.639    -897.360     653.230
  C       71.501    -897.920     652.642
  N       70.220    -897.550     652.953
  N       72.815    -896.370     654.211
  C       74.107    -896.190     654.271
  N       74.795    -897.010     653.416
  O       78.820    -893.620     657.152
  O       77.366    -891.740     656.198
  H       76.763    -896.680     650.478
  H       79.302    -892.820     657.414
  H       73.023    -900.000     650.615
  H       74.613    -895.460     654.889
  H       76.490    -897.840     652.534
  H       75.783    -894.840     652.427
  H       78.005    -894.230     652.416
  H       78.995    -896.780     653.530
  H       78.583    -895.580     655.781
  H       69.479    -897.930     652.386
  H       70.079    -896.760     653.569
  H       79.745    -894.810     654.660
  P       79.618    -894.840     650.498
  C       81.808    -896.200     650.752
  O       80.821    -895.690     649.873
  O       80.312    -894.010     651.684
  O       78.869    -893.950     649.556
  H       80.558    -893.110     651.368
  H       82.540    -896.742     650.190
  H       81.348    -896.854     651.463
  H       82.281    -895.389     651.266

 6  7  8  9  10  11  12  13  14  15  25  28  32  33  34  35 0
 6-311+G(2d,p)
 ****
 36  39  40 0
 6-311+G(2d,p)
 ****
 1  2  3  4  5  16  17  18  19  20  21  22  23  24 0
 3-21G
 ****
 26  27  29  30  31  37  38  41  42  43  44  45  46  47  48 0
 3-21G
 ****


