%nproc=1
%NoSave
%Mem=1900MB
#P OB98/GEN NMR

erre ene a

0 1
  C       64.901     378.407      61.033
  O       66.167     377.824      60.797
  H       64.938     378.957      61.977
  H       64.139     377.624      61.110
  H       64.643     379.099      60.227
  P       66.385     377.111      59.380
  C       68.471     376.038      58.202
  O       67.970     376.960      59.162
  C       69.670     376.646      57.474
  O       69.283     377.804      56.710
  C       70.754     377.167      58.400
  O       71.473     376.136      59.040
  C       71.586     377.983      57.420
  O       72.441     377.138      56.640
  C       70.480     378.611      56.534
  N       70.238     380.011      56.853
  C       71.309     380.883      56.614
  O       72.366     380.457      56.152
  N       71.157     382.210      56.933
  C       70.034     382.635      57.421
  N       69.951     383.959      57.726
  C       68.874     381.756      57.663
  C       69.046     380.468      57.364
  O       65.995     378.265      58.344
  O       65.641     375.830      59.191
  H       72.903     377.724      56.008
  H       66.475     379.097      58.489
  H       67.953     382.153      58.063
  H       68.247     379.754      57.512
  H       70.754     378.544      55.474
  H       72.227     378.703      57.929
  H       70.324     377.862      59.133
  H       70.064     375.891      56.779
  H       70.776     384.527      57.564
  H       67.692     375.751      57.491
  H       69.142     384.395      58.138
  H       68.777     375.135      58.740
  P       72.528     376.474      60.199
  C       73.387     375.159      62.239
  O       72.293     375.381      61.352
  O       72.521     377.887      60.673
  O       73.926     376.008      59.571
  H       73.970     375.063      59.335
  H       73.117     374.416      62.960
  H       73.629     376.072      62.742
  H       74.236     374.823      61.681

 6  7  8  9  10  11  12  13  14  15  16  26  30  31  32  33  35 0
 6-311+G(2d,p)
 ****
 37  38 0
 6-311+G(2d,p)
 ****
 1  2  3  4  5  17  18  19  20  21  22  23  24  25 0
 3-21G
 ****
 27  28  29  34  36  39  40  41  42  43  44  45  46 0
 3-21G
 ****


