%nproc=1
%NoSave
%Mem=1900MB
#P OB98/GEN NMR

erre ene a

0 1
  C      -60.752    -110.542     274.324
  O      -60.855    -111.638     273.438
  H      -61.747    -110.317     274.720
  H      -60.372    -109.662     273.797
  H      -60.088    -110.793     275.155
  P      -59.513    -112.056     272.657
  C      -59.605    -111.215     270.184
  O      -59.345    -110.900     271.547
  C      -60.991    -110.721     269.787
  O      -61.266    -109.427     270.377
  C      -61.189    -110.528     268.282
  O      -61.398    -111.744     267.586
  C      -62.434    -109.660     268.297
  O      -63.583    -110.465     268.606
  C      -62.099    -108.685     269.447
  N      -61.420    -107.468     268.997
  C      -62.176    -106.577     268.215
  O      -63.348    -106.821     267.940
  N      -61.571    -105.432     267.744
  C      -60.327    -105.191     268.038
  N      -59.783    -104.048     267.532
  C      -59.501    -106.098     268.858
  C      -60.102    -107.202     269.298
  O      -59.969    -113.318     271.785
  O      -58.306    -112.291     273.506
  H      -64.358    -109.875     268.575
  H      -59.254    -113.565     271.150
  H      -58.460    -105.861     269.060
  H      -59.557    -107.913     269.907
  H      -63.012    -108.397     269.992
  H      -62.635    -109.175     267.340
  H      -60.362    -109.958     267.841
  H      -61.727    -111.428     270.198
  H      -60.352    -103.482     266.924
  H      -59.540    -112.301     270.068
  H      -58.787    -103.853     267.574
  H      -58.854    -110.740     269.543
  P      -61.290    -111.698     265.983
  C      -63.518    -111.937     264.651
  O      -62.673    -111.103     265.434
  O      -61.363    -113.242     265.566
  O      -60.051    -111.030     265.454
  H      -60.805    -113.418     264.781
  H      -64.393    -111.391     264.367
  H      -63.803    -112.795     265.224
  H      -62.994    -112.252     263.773

 6  7  8  9  10  11  12  13  14  15  16  26  30  31  32  33  35 0
 6-311+G(2d,p)
 ****
 37  38 0
 6-311+G(2d,p)
 ****
 1  2  3  4  5  17  18  19  20  21  22  23  24  25 0
 3-21G
 ****
 27  28  29  34  36  39  40  41  42  43  44  45  46 0
 3-21G
 ****


