%nproc=1
%NoSave
%Mem=1900MB
#P OB98/GEN NMR

erre ene a

0 1
  C     -907.842    1900.858     925.720
  O     -908.892    1900.466     926.585
  H     -907.496    1901.849     926.018
  H     -908.190    1900.902     924.696
  H     -906.999    1900.153     925.792
  P     -909.615    1899.063     926.238
  C     -912.080    1899.731     926.742
  O     -910.919    1899.072     927.188
  C     -912.859    1900.321     927.945
  O     -913.114    1899.291     928.921
  C     -912.084    1901.397     928.688
  O     -912.126    1902.668     928.039
  C     -912.876    1901.432     929.999
  O     -914.169    1902.081     929.768
  C     -913.065    1899.911     930.227
  N     -911.979    1899.317     931.050
  C     -912.162    1899.363     932.452
  O     -913.182    1899.871     932.948
  N     -911.184    1898.861     933.260
  C     -910.123    1898.345     932.705
  N     -909.181    1897.865     933.563
  C     -909.879    1898.248     931.263
  C     -910.858    1898.751     930.491
  O     -908.672    1897.974     926.926
  O     -909.891    1898.827     924.780
  H     -914.658    1901.972     930.598
  H     -909.106    1897.084     926.889
  H     -908.993    1897.842     930.866
  H     -910.760    1898.755     929.427
  H     -914.032    1899.715     930.714
  H     -912.381    1901.957     930.808
  H     -911.073    1901.104     928.926
  H     -913.819    1900.671     927.577
  H     -909.330    1897.978     934.560
  H     -912.721    1899.026     926.210
  H     -908.241    1897.556     933.271
  H     -911.809    1900.545     926.060
  P     -910.759    1903.194     927.391
  C     -911.045    1905.634     928.260
  O     -910.940    1904.784     927.146
  O     -910.811    1902.581     925.908
  O     -909.495    1902.820     928.118
  H     -909.907    1902.357     925.594
  H     -911.159    1906.645     927.928
  H     -910.160    1905.552     928.856
  H     -911.896    1905.353     928.844

 6  7  8  9  10  11  12  13  14  15  16  26  30  31  32  33  35 0
 6-311+G(2d,p)
 ****
 37  38 0
 6-311+G(2d,p)
 ****
 1  2  3  4  5  17  18  19  20  21  22  23  24  25 0
 3-21G
 ****
 27  28  29  34  36  39  40  41  42  43  44  45  46 0
 3-21G
 ****


