%nproc=1
%NoSave
%Mem=1900MB
#P OB98/GEN NMR

erre ene a

0 1
  C      -17.292    -153.759       4.898
  O      -16.471    -153.855       3.729
  P      -17.227    -154.220       2.356
  C      -15.800    -156.330       1.839
  O      -16.199    -155.028       1.422
  C      -14.336    -156.615       1.498
  O      -14.084    -156.236       0.123
  C      -13.317    -155.866       2.367
  O      -12.193    -156.728       2.598
  C      -12.848    -154.741       1.461
  O      -11.566    -154.244       1.841
  C      -12.885    -155.443       0.106
  N      -10.439    -153.960      -4.066
  C      -10.190    -155.033      -3.230
  N       -9.124    -155.803      -3.538
  N      -10.921    -155.322      -2.186
  C      -11.973    -154.484      -2.018
  C      -12.331    -153.397      -2.782
  C      -11.487    -153.064      -3.910
  O      -11.625    -152.098      -4.657
  N      -13.463    -152.790      -2.293
  C      -13.783    -153.506      -1.234
  N      -12.905    -154.538      -1.021
  O      -17.374    -152.800       1.634
  O      -18.554    -154.870       2.557
  H      -10.941    -154.990       1.775
  H      -18.314    -152.623       1.434
  H       -9.833    -153.772      -4.844
  H      -14.617    -153.309      -0.575
  H      -12.032    -156.121      -0.016
  H      -13.565    -153.913       1.510
  H       -8.559    -155.675      -4.363
  H      -13.713    -155.505       3.319
  H       -8.952    -156.619      -2.963
  H      -14.173    -157.697       1.570
  H      -16.435    -157.075       1.349
  H      -15.962    -156.415       2.919
  P      -12.159    -157.492       4.008
  C      -10.169    -156.154       5.016
  O      -10.646    -157.392       4.525
  O      -12.321    -159.031       3.598
  O      -13.211    -157.047       4.970
  H      -12.729    -159.535       4.328
  H      -10.974    -155.432       5.169
  H       -9.453    -155.742       4.299
  H       -9.660    -156.324       5.968
  H      -16.683    -153.513       5.743
  H      -17.779    -154.696       5.070
  H      -18.028    -152.996       4.755

 3  4  5  6  7  8  9  10  11  12  23  26  30  31  33  0
 6-311+G(2d,p)
 ****
 35  36  37  38 0
 6-311+G(2d,p)
 ****
 1  2  13  14  15  16  17  18  19  20  21  22  24  25  27  28  29 0
 3-21G
 ****
 32  34  39  40  41  42  43  44  45  46  47  48  49 0
 3-21G
 ****


