%nproc=1
%NoSave
%Mem=1900MB
#P OB98/GEN NMR

erre ene a

0 1
  C      -89.081     518.345     286.012
  O      -87.990     518.274     285.112
  P      -86.887     517.130     285.373
  C      -84.647     518.424     285.693
  O      -85.491     517.706     284.809
  C      -83.424     518.960     284.950
  O      -82.667     517.870     284.386
  C      -83.745     519.868     283.774
  O      -84.025     521.200     284.187
  C      -82.453     519.811     282.995
  O      -81.492     520.711     283.583
  C      -82.018     518.343     283.179
  N      -80.775     516.909     278.492
  C      -80.053     517.641     279.403
  N      -78.846     518.102     278.990
  N      -80.467     517.895     280.624
  C      -81.692     517.377     280.891
  C      -82.506     516.627     280.067
  C      -82.040     516.357     278.722
  O      -82.654     515.766     277.831
  N      -83.675     516.271     280.702
  C      -83.562     516.800     281.893
  N      -82.407     517.507     282.044
  O      -87.271     515.987     284.305
  O      -86.854     516.588     286.776
  H      -80.668     520.628     283.056
  H      -86.847     515.140     284.554
  H      -80.409     516.740     277.557
  H      -84.321     516.689     282.668
  H      -80.947     518.258     283.326
  H      -82.572     520.133     281.945
  H      -78.503     517.993     278.050
  H      -84.555     519.460     283.163
  H      -78.328     518.700     279.633
  H      -82.782     519.465     285.685
  H      -84.337     517.759     286.522
  H      -85.226     519.258     286.140
  P      -85.527     521.727     283.953
  C      -84.997     524.076     282.997
  O      -85.451     523.328     284.091
  O      -86.293     521.275     285.281
  O      -86.183     521.199     282.716
  H      -87.248     521.167     285.121
  H      -85.232     525.149     283.170
  H      -85.474     523.761     282.056
  H      -83.900     523.997     282.884
  H      -89.731     519.144     285.722
  H      -88.716     518.524     287.002
  H      -89.620     517.421     285.992

 3  4  5  6  7  8  9  10  11  12  23  26  30  31 0
 6-311+G(2d,p)
 ****
 33  35  36  37  38 0
 6-311+G(2d,p)
 ****
 1  2  13  14  15  16  17  18  19  20  21  22  24  25 0
 3-21G
 ****
 27  28  29  32  34  39  40  41  42  43  44  45  46  47  48  49 0
 3-21G
 ****


