%nproc=1
%NoSave
%Mem=1900MB
#P OB98/GEN NMR

erre ene a

0 1
  C       61.766     154.249    -416.446
  O       61.786     155.594    -416.006
  P       63.214     156.324    -415.921
  C       62.907     157.540    -418.200
  O       63.654     156.594    -417.438
  C       63.629     158.887    -418.230
  O       63.282     159.655    -417.064
  C       65.142     158.780    -418.223
  O       65.626     158.435    -419.497
  C       65.535     160.181    -417.763
  O       65.625     161.079    -418.883
  C       64.368     160.575    -416.829
  N       64.760     160.592    -415.427
  C       65.167     161.840    -414.926
  O       65.200     162.825    -415.667
  N       65.568     161.916    -413.613
  C       65.558     160.854    -412.873
  N       65.961     160.993    -411.581
  C       65.158     159.525    -413.367
  C       64.775     159.465    -414.644
  O       64.192     155.150    -415.452
  O       63.257     157.503    -415.005
  H       66.541     160.980    -419.225
  H       64.964     155.509    -414.978
  H       65.172     158.663    -412.708
  H       64.467     158.526    -415.091
  H       63.995     161.575    -417.089
  H       66.517     160.189    -417.277
  H       65.465     158.043    -417.470
  H       63.284     159.441    -419.117
  H       66.238     161.914    -411.270
  H       61.919     157.677    -417.741
  H       65.975     160.231    -410.921
  H       62.769     157.153    -419.216
  P       67.082     157.768    -419.593
  C       65.966     155.701    -418.577
  O       67.065     156.582    -418.514
  O       67.996     158.867    -418.864
  O       67.587     157.422    -420.951
  H       68.938     158.622    -418.947
  H       66.154     154.861    -417.901
  H       65.843     155.309    -419.587
  H       65.051     156.205    -418.249
  H       60.758     153.891    -416.454
  H       62.352     153.648    -415.783
  H       62.173     154.191    -417.434

 3  4  5  6  7  8  9  10  11  12  13  21  23  27  28  29  30  32 0
 6-311+G(2d,p)
 ****
 34  35 0
 6-311+G(2d,p)
 ****
 1  2  14  15  16  17  18  19  20  22  24  25  26 0
 3-21G
 ****
 31  33  36  37  38  39  40  41  42  43  44  45  46 0
 3-21G
 ****


