%nproc=1
%NoSave
%Mem=1900MB
#P OB98/GEN NMR

erre ene a

0 1
  C     -127.963    -115.147     -38.427
  O     -127.363    -114.222     -37.545
  H     -127.800    -116.158     -38.043
  H     -127.508    -115.071     -39.417
  H     -129.039    -114.964     -38.496
  P     -127.484    -112.671     -37.931
  C     -127.544    -111.799     -35.488
  O     -126.824    -111.854     -36.712
  C     -127.145    -112.966     -34.583
  O     -125.717    -112.888     -34.317
  C     -127.869    -112.976     -33.230
  O     -128.152    -114.332     -32.869
  C     -126.824    -112.420     -32.278
  O     -127.060    -112.813     -30.931
  C     -125.550    -112.995     -32.890
  N     -120.752    -113.622     -31.513
  C     -121.683    -114.537     -31.963
  N     -121.278    -115.823     -32.058
  N     -122.908    -114.222     -32.288
  C     -123.170    -112.898     -32.169
  C     -122.344    -111.895     -31.726
  C     -120.995    -112.261     -31.347
  O     -120.133    -111.500     -30.919
  N     -122.995    -110.687     -31.715
  C     -124.211    -110.960     -32.152
  N     -124.364    -112.289     -32.443
  O     -129.047    -112.367     -37.772
  O     -126.973    -112.302     -39.283
  H     -126.554    -112.209     -30.348
  H     -129.330    -111.664     -38.389
  H     -119.826    -113.920     -31.264
  H     -125.011    -110.242     -32.272
  H     -125.405    -114.053     -32.638
  H     -126.819    -111.325     -32.321
  H     -120.340    -116.134     -31.856
  H     -128.792    -112.394     -33.223
  H     -121.941    -116.510     -32.400
  H     -127.313    -113.903     -35.127
  H     -128.616    -111.855     -35.702
  H     -127.327    -110.852     -34.986
  P     -129.691    -114.760     -32.740
  C     -129.438    -117.278     -33.316
  O     -129.763    -116.310     -32.330
  O     -130.192    -114.755     -34.262
  O     -130.508    -113.835     -31.900
  H     -130.781    -113.994     -34.412
  H     -129.531    -118.258     -32.898
  H     -128.432    -117.126     -33.648
  H     -130.106    -117.180     -34.146

 6  7  8  9  10  11  12  13  14  15  26  29  33  34 0
 6-311+G(2d,p)
 ****
 36  38  39  40  41 0
 6-311+G(2d,p)
 ****
 1  2  3  4  5  16  17  18  19  20  21  22  23  24  25 0
 3-21G
 ****
 27  28  30  31  32  35  37  42  43  44  45  46  47 0
 3-21G
 ****
 48  49 0
 3-21G
 ****


