%nproc=1
%NoSave
%Mem=1900MB
#P OB98/GEN NMR

erre ene a

0 1
  C      -16.554    -292.853      43.740
  O      -16.551    -293.400      45.044
  H      -16.556    -291.763      43.817
  H      -17.451    -293.172      43.201
  H      -15.659    -293.167      43.195
  P      -16.530    -295.001      45.145
  C      -14.810    -296.508      43.893
  O      -15.026    -295.447      44.812
  C      -13.340    -296.546      43.457
  O      -13.084    -295.409      42.578
  C      -12.343    -296.436      44.623
  O      -11.140    -297.127      44.241
  C      -12.078    -294.938      44.663
  O      -10.943    -294.645      45.446
  C      -11.999    -294.656      43.166
  N       -9.475    -290.249      42.557
  C       -9.046    -291.501      42.829
  N       -9.777    -292.626      42.965
  C      -11.083    -292.375      42.764
  C      -11.668    -291.153      42.468
  C      -10.800    -290.049      42.368
  N      -11.235    -288.772      42.097
  N      -13.037    -291.288      42.335
  C      -13.273    -292.568      42.549
  N      -12.123    -293.259      42.820
  O      -17.360    -295.463      43.858
  O      -17.089    -295.572      46.406
  H      -10.713    -293.694      45.383
  H      -18.291    -295.622      44.101
  H       -7.974    -291.612      42.964
  H      -14.246    -293.041      42.529
  H      -11.066    -295.024      42.730
  H      -12.920    -294.406      45.117
  H      -12.721    -296.851      45.558
  H      -13.166    -297.451      42.863
  H      -15.451    -296.347      43.021
  H      -15.075    -297.457      44.363
  H      -10.554    -288.033      42.058
  H      -12.222    -288.605      41.972
  P      -10.651    -298.385      45.113
  C      -10.696    -300.938      44.527
  O      -11.396    -299.701      44.574
  O      -11.397    -298.134      46.509
  O       -9.176    -298.502      45.314
  H      -10.877    -298.533      47.233
  H      -11.343    -301.700      44.144
  H      -10.376    -301.204      45.513
  H       -9.843    -300.841      43.889

 6  7  8  9  10  11  12  13  14  15  25  28  32  33  34  35 0
 6-311+G(2d,p)
 ****
 36  37  40 0
 6-311+G(2d,p)
 ****
 1  2  3  4  5  16  17  18  19  20  21  22  23  24 0
 3-21G
 ****
 26  27  29  30  31  38  39 41  42  43  44  45  46  47  48 0
 3-21G
 ****


