%nproc=1
%NoSave
%Mem=1900MB
#P OB98/GEN NMR

erre ene a

0 1
  C       36.643    -548.537     341.536
  O       37.908    -548.283     342.124
  P       39.236    -548.995     341.579
  C       40.664    -547.745     343.311
  O       40.246    -549.014     342.829
  C       41.160    -547.873     344.754
  O       40.057    -548.316     345.575
  C       42.271    -548.898     344.991
  O       43.588    -548.412     344.727
  C       42.115    -549.146     346.481
  O       42.718    -548.061     347.223
  C       40.601    -549.122     346.658
  N       39.389    -553.271     349.399
  C       39.934    -552.080     349.746
  N       40.248    -551.037     348.950
  C       39.888    -551.288     347.685
  C       39.321    -552.441     347.184
  C       39.060    -553.469     348.100
  N       38.475    -554.670     347.748
  N       39.109    -552.331     345.818
  C       39.539    -551.121     345.513
  N       40.012    -550.447     346.609
  O       39.778    -548.419     340.313
  O       38.826    -550.529     341.430
  H       43.631    -547.959     346.886
  H       39.466    -551.002     340.860
  H       40.169    -551.962     350.801
  H       39.531    -550.690     344.521
  H       40.286    -548.652     347.599
  H       42.607    -550.068     346.811
  H       42.077    -549.826     344.443
  H       41.466    -546.881     345.103
  H       39.802    -547.065     343.286
  H       38.223    -555.290     348.489
  H       38.091    -554.755     346.816
  H       41.446    -547.337     342.659
  P       44.587    -549.393     343.945
  C       46.542    -547.846     344.722
  O       46.029    -549.149     344.604
  O       44.533    -549.286     342.459
  O       44.165    -550.842     344.500
  H       44.361    -550.996     345.433
  H       47.453    -547.876     345.338
  H       45.828    -547.181     345.204
  H       46.806    -547.451     343.739
  H       35.893    -547.967     342.043
  H       36.415    -549.579     341.617
  H       36.667    -548.257     340.504

 3  4  5  6  7  8  9  10  11  12  22  25  29  30  31  32 0
 6-311+G(2d,p)
 ****
 33  36  37 0
 6-311+G(2d,p)
 ****
 1  2  13  14  15  16  17  18  19  20  21  23  24  26 0
 3-21G
 ****
 27  28  34  35  38  39  40  41  42  43  44  45  46  47  48 0
 3-21G
 ****


