%nproc=1
%NoSave
%Mem=1900MB
#P OB98/GEN NMR

erre ene a

0 1
  C       70.779    -353.933     278.430
  O       70.120    -352.854     277.793
  H       71.030    -353.636     279.452
  H       71.702    -354.172     277.894
  H       70.130    -354.811     278.465
  P       69.462    -353.165     276.366
  C       68.395    -350.776     276.187
  O       69.253    -351.757     275.618
  C       68.725    -349.398     275.619
  O       70.066    -349.005     275.972
  C       68.719    -349.331     274.100
  O       67.419    -349.379     273.559
  C       69.423    -347.998     273.874
  O       68.510    -346.897     273.963
  C       70.442    -347.964     275.039
  N       71.807    -348.108     274.569
  C       72.382    -346.947     274.037
  O       71.741    -345.895     274.014
  N       73.648    -347.020     273.517
  C       74.272    -348.156     273.501
  N       75.511    -348.167     272.936
  C       73.700    -349.404     274.047
  C       72.475    -349.309     274.560
  O       67.971    -353.594     276.760
  O       70.191    -354.175     275.547
  H       69.046    -346.086     273.844
  H       67.536    -352.978     277.372
  H       74.267    -350.324     274.021
  H       71.979    -350.175     274.983
  H       70.366    -347.014     275.586
  H       69.885    -347.950     272.886
  H       69.354    -350.127     273.686
  H       68.022    -348.673     276.052
  H       75.841    -347.303     272.526
  H       68.489    -350.770     277.279
  H       76.057    -349.006     272.799
  H       67.365    -351.053     275.945
  P       67.176    -349.621     271.995
  C       66.031    -351.928     272.081
  O       65.856    -350.532     271.865
  O       68.353    -350.135     271.239
  O       66.647    -348.197     271.486
  H       65.831    -347.887     271.913
  H       65.091    -352.427     271.969
  H       66.406    -352.092     273.070
  H       66.728    -352.315     271.367

 6  7  8  9  10  11  12  13  14  15  16  26  30  31  32  33  35 0
 6-311+G(2d,p)
 ****
 37  38 0
 6-311+G(2d,p)
 ****
 1  2  3  4  5  17  18  19  20  21  22  23  24  25 0
 3-21G
 ****
 27  28  29  34  36  39  40  41  42  43  44  45  46 0
 3-21G
 ****


