%nproc=1
%NoSave
%Mem=1900MB
#P OB98/GEN NMR

erre ene a

0 1
  C      940.387    1061.192    -196.201
  O      939.628    1060.135    -196.752
  H      941.318    1060.781    -195.801
  H      939.841    1061.676    -195.391
  H      940.633    1061.929    -196.976
  P      938.158    1060.461    -197.309
  C      937.477    1058.271    -196.106
  O      937.337    1059.081    -197.264
  C      936.813    1056.905    -196.305
  O      937.678    1056.075    -197.121
  C      936.547    1056.146    -194.993
  O      935.384    1055.330    -195.195
  C      937.797    1055.287    -194.889
  O      937.640    1054.264    -193.943
  C      937.971    1054.886    -196.355
  N      939.298    1054.356    -196.635
  C      939.632    1053.146    -196.030
  O      938.821    1052.573    -195.300
  N      940.878    1052.614    -196.251
  C      941.736    1053.277    -196.959
  N      942.964    1052.708    -197.124
  C      941.454    1054.599    -197.570
  C      940.222    1055.065    -197.369
  O      938.100    1061.180    -198.610
  O      937.483    1061.317    -196.131
  H      938.380    1053.610    -194.011
  H      937.454    1062.258    -196.389
  H      942.218    1055.118    -198.129
  H      939.917    1056.033    -197.782
  H      937.230    1054.122    -196.636
  H      938.641    1055.892    -194.553
  H      936.397    1056.807    -194.132
  H      935.881    1057.057    -196.873
  H      943.124    1051.804    -196.678
  H      937.003    1058.809    -195.281
  H      943.720    1053.139    -197.629
  H      938.534    1058.133    -195.868
  P      934.230    1055.161    -194.097
  C      934.319    1052.654    -193.505
  O      933.618    1053.681    -194.193
  O      933.203    1056.245    -194.124
  O      935.000    1055.152    -192.689
  H      934.415    1055.538    -192.010
  H      933.814    1051.721    -193.646
  H      934.356    1052.885    -192.461
  H      935.315    1052.582    -193.890

 6  7  8  9  10  11  12  13  14  15  16  26  30  31  32  33  35 0
 6-311+G(2d,p)
 ****
 37  38 0
 6-311+G(2d,p)
 ****
 1  2  3  4  5  17  18  19  20  21  22  23  24  25 0
 3-21G
 ****
 27  28  29  34  36  39  40  41  42  43  44  45  46 0
 3-21G
 ****


