%nproc=1
%NoSave
%Mem=1900MB
#P OB98/GEN NMR

erre ene a

0 1
  C     -555.538    1254.194    -469.561
  O     -555.580    1253.412    -470.732
  P     -555.950    1254.155    -472.110
  C     -554.100    1252.781    -473.293
  O     -555.451    1253.192    -473.281
  C     -553.733    1252.139    -474.637
  O     -554.361    1250.855    -474.764
  C     -554.167    1252.926    -475.865
  O     -553.272    1253.963    -476.188
  C     -554.131    1251.857    -476.936
  O     -552.772    1251.643    -477.367
  C     -554.647    1250.600    -476.171
  N     -558.148    1248.470    -479.210
  C     -556.828    1248.588    -479.327
  N     -555.964    1249.185    -478.475
  C     -556.620    1249.721    -477.438
  C     -557.975    1249.696    -477.182
  C     -558.763    1249.026    -478.104
  N     -560.135    1248.872    -477.978
  N     -558.268    1250.361    -476.013
  C     -557.094    1250.744    -475.540
  N     -556.061    1250.380    -476.361
  O     -554.889    1255.365    -472.151
  O     -557.336    1254.660    -472.217
  H     -552.781    1250.901    -477.964
  H     -555.220    1256.081    -472.719
  H     -556.392    1248.160    -480.213
  H     -556.942    1251.287    -474.610
  H     -554.129    1249.685    -476.461
  H     -554.724    1252.099    -477.833
  H     -555.199    1253.313    -475.743
  H     -552.638    1251.974    -474.662
  H     -553.918    1252.041    -472.494
  H     -560.607    1248.227    -478.577
  H     -560.547    1249.105    -477.069
  H     -553.456    1253.663    -473.117
  P     -553.855    1255.204    -477.009
  C     -552.425    1256.943    -475.722
  O     -552.712    1256.355    -476.944
  O     -555.004    1255.775    -476.076
  O     -554.369    1254.832    -478.357
  H     -555.696    1256.243    -476.600
  H     -551.429    1257.432    -475.792
  H     -552.341    1256.189    -474.929
  H     -553.173    1257.691    -475.442
  H     -555.281    1253.574    -468.727
  H     -556.497    1254.638    -469.394
  H     -554.803    1254.964    -469.673

 3  4  5  6  7  8  9  10  11  12  22  25  29  30  31  32 0
 6-311+G(2d,p)
 ****
 33  36  37 0
 6-311+G(2d,p)
 ****
 1  2  13  14  15  16  17  18  19  20  21  23  24  26 0
 3-21G
 ****
 27  28  34  35  38  39  40  41  42  43  44  45  46  47  48 0
 3-21G
 ****


