%nproc=1
%NoSave
%Mem=1900MB
#P OB98/GEN NMR

erre ene a

0 1
  C       -6.563      25.921     -59.799
  O       -7.943      25.963     -59.430
  P       -8.474      25.017     -58.253
  C       -9.391      22.614     -57.982
  O       -8.725      23.543     -58.829
  C      -10.016      21.494     -58.819
  O      -11.199      21.952     -59.518
  C       -9.090      20.988     -59.917
  O       -7.952      20.260     -59.506
  C      -10.057      20.293     -60.861
  O      -10.352      18.966     -60.427
  C      -11.309      21.195     -60.742
  N      -11.482      22.074     -61.898
  C      -11.805      21.449     -63.098
  O      -11.900      20.230     -63.221
  N      -11.979      22.278     -64.173
  C      -11.832      23.635     -64.172
  O      -11.978      24.327     -65.171
  C      -11.467      24.236     -62.880
  C      -11.311      23.442     -61.818
  O       -9.581      25.574     -57.424
  O       -7.158      24.809     -57.351
  H      -10.924      19.036     -59.639
  H       -7.430      24.850     -56.414
  H      -12.221      21.844     -65.051
  H      -11.336      25.308     -62.842
  H      -11.043      23.864     -60.856
  H      -12.215      20.581     -60.651
  H       -9.648      20.215     -61.873
  H       -8.700      21.863     -60.457
  H      -10.321      20.688     -58.150
  H      -10.160      23.128     -57.402
  H       -8.672      22.215     -57.258
  P       -6.458      20.646     -59.938
  C       -5.174      21.061     -62.152
  O       -6.391      20.697     -61.539
  O       -5.340      19.959     -59.228
  O       -6.414      22.209     -59.562
  H       -5.507      22.433     -59.281
  H       -5.316      21.059     -63.236
  H       -4.389      20.344     -61.900
  H       -4.875      22.065     -61.841
  H       -6.386      26.612     -60.596
  H       -6.310      24.933     -60.121
  H       -5.960      26.186     -58.956

 3  4  5  6  7  8  9  10  11  12  13  23  28  29  30  31  32 0
 6-311+G(2d,p)
 ****
 33  34 0
 6-311+G(2d,p)
 ****
 1  2  14  15  16  17  18  19  20  21  22  24  25  26  27 0
 3-21G
 ****
 35  36  37  38  39  40  41  42  43  44  45 0
 3-21G
 ****


