%nproc=1
%NoSave
%Mem=1900MB
#P OB98/GEN NMR

erre ene a

0 1
  C     -462.083     -65.175     319.794
  O     -463.346     -64.892     319.225
  H     -461.808     -64.356     320.461
  H     -461.332     -65.256     319.005
  H     -462.119     -66.103     320.371
  P     -464.059     -66.063     318.394
  C     -465.626     -64.779     316.764
  O     -465.509     -65.509     317.974
  C     -466.550     -63.581     316.962
  O     -467.846     -64.066     317.421
  C     -466.048     -62.570     318.006
  O     -466.408     -61.253     317.566
  C     -466.851     -62.923     319.240
  O     -466.975     -61.858     320.171
  C     -468.193     -63.331     318.610
  N     -469.009     -64.138     319.508
  C     -470.360     -63.810     319.603
  O     -470.928     -62.951     318.939
  N     -471.074     -64.529     320.533
  C     -470.577     -65.495     321.365
  O     -471.263     -66.087     322.186
  C     -469.144     -65.788     321.213
  C     -468.440     -65.105     320.311
  O     -464.389     -67.152     319.520
  O     -463.261     -66.630     317.265
  H     -463.646     -67.777     319.619
  H     -467.420     -61.118     319.715
  H     -472.048     -64.306     320.621
  H     -468.711     -66.540     321.864
  H     -467.378     -65.284     320.191
  H     -468.748     -62.439     318.297
  H     -466.388     -63.771     319.758
  H     -464.970     -62.614     318.188
  H     -466.714     -63.094     315.993
  H     -466.044     -65.428     315.986
  H     -464.630     -64.446     316.446
  P     -465.519     -60.030     318.096
  C     -467.685     -58.558     318.171
  O     -466.343     -58.705     317.725
  O     -464.314     -60.053     317.052
  O     -465.124     -60.172     319.526
  H     -464.587     -60.308     316.154
  H     -468.073     -57.620     317.832
  H     -467.711     -58.589     319.240
  H     -468.281     -59.354     317.776

 6  7  8  9  10  11  12  13  14  15  16  27  31  32  33  34  35 0
 6-311+G(2d,p)
 ****
 36  37 0
 6-311+G(2d,p)
 ****
 1  2  3  4  5  17  18  19  20  21  22  23  24  25 0
 3-21G
 ****
 26  28  29  30  38  39  40  41  42  43  44  45 0
 3-21G
 ****


