%nproc=1
%NoSave
%Mem=1900MB
#P OB98/GEN NMR

erre ene a

0 1
  C     -158.516    -154.439      11.847
  O     -157.256    -153.796      11.944
  P     -157.160    -152.506      12.892
  C     -155.228    -151.356      14.201
  O     -155.667    -152.497      13.473
  C     -153.844    -151.603      14.795
  O     -153.843    -152.823      15.555
  C     -152.748    -151.765      13.755
  O     -152.363    -150.508      13.234
  C     -151.660    -152.456      14.570
  O     -150.843    -151.497      15.262
  C     -152.481    -153.307      15.572
  N     -152.416    -154.729      15.277
  C     -151.133    -155.253      15.090
  O     -150.150    -154.516      15.153
  N     -151.004    -156.589      14.790
  C     -152.064    -157.330      14.689
  N     -151.878    -158.645      14.399
  C     -153.435    -156.808      14.863
  C     -153.539    -155.512      15.145
  O     -158.051    -152.914      14.155
  O     -157.620    -151.231      12.263
  H     -150.214    -151.159      14.592
  H     -158.414    -152.122      14.595
  H     -154.284    -157.470      14.765
  H     -154.509    -155.049      15.289
  H     -152.111    -153.155      16.591
  H     -150.993    -153.048      13.938
  H     -153.079    -152.426      12.946
  H     -153.609    -150.774      15.474
  H     -150.928    -158.969      14.279
  H     -155.931    -151.156      15.017
  H     -152.634    -159.307      14.319
  H     -155.217    -150.490      13.530
  P     -151.845    -150.457      11.720
  C     -151.640    -148.609       9.953
  O     -152.060    -148.936      11.264
  O     -153.022    -151.211      10.935
  O     -150.508    -151.055      11.434
  H     -152.774    -151.335      10.000
  H     -151.980    -147.599       9.715
  H     -152.065    -149.307       9.228
  H     -150.547    -148.634       9.896
  H     -158.439    -155.278      11.187
  H     -159.240    -153.750      11.464
  H     -158.821    -154.775      12.816

 3  4  5  6  7  8  9  10  11  12  13  21  23  27  28  29  30  32 0
 6-311+G(2d,p)
 ****
 34  35 0
 6-311+G(2d,p)
 ****
 1  2  14  15  16  17  18  19  20  22  24  25  26 0
 3-21G
 ****
 31  33  36  37  38  39  40  41  42  43  44  45  46 0
 3-21G
 ****


