%nproc=1
%NoSave
%Mem=1900MB
#P OB98/GEN NMR

erre ene a

0 1
  C       46.881      83.163      47.770
  O       47.313      84.295      48.504
  P       48.569      84.101      49.486
  C       50.176      85.737      48.253
  O       49.885      84.394      48.621
  C       51.420      85.782      47.369
  O       51.246      84.925      46.223
  C       51.743      87.157      46.801
  O       52.322      87.997      47.787
  C       52.680      86.775      45.660
  O       53.993      86.498      46.172
  C       52.033      85.482      45.136
  N       51.812      85.674      40.025
  C       52.840      85.459      40.876
  N       52.824      85.445      42.224
  C       51.586      85.677      42.687
  C       50.447      85.935      41.944
  C       50.590      85.925      40.547
  N       49.539      86.150      39.684
  N       49.362      86.150      42.767
  C       49.836      86.013      43.987
  N       51.170      85.713      43.991
  O       48.617      82.519      49.707
  O       48.477      84.846      50.781
  H       54.576      86.335      45.404
  H       48.923      82.301      50.609
  H       53.804      85.271      40.411
  H       49.254      86.116      44.893
  H       52.774      84.729      44.845
  H       52.781      87.561      44.904
  H       50.838      87.629      46.400
  H       52.267      85.404      47.956
  H       50.362      86.330      49.154
  H       49.757      86.272      38.707
  H       48.665      86.475      40.075
  H       49.310      86.158      47.734
  P       51.585      89.389      48.093
  C       52.047      88.952      50.581
  O       51.059      89.221      49.602
  O       50.244      89.240      47.237
  O       52.401      90.604      47.820
  H       49.806      88.384      47.389
  H       51.565      88.914      51.561
  H       52.802      89.743      50.586
  H       52.518      87.985      50.382
  H       46.043      83.431      47.161
  H       46.595      82.386      48.448
  H       47.679      82.816      47.147

 3  4  5  6  7  8  9  10  11  12  22  25  29  30  31  32 0
 6-311+G(2d,p)
 ****
 33  36  37 0
 6-311+G(2d,p)
 ****
 1  2  13  14  15  16  17  18  19  20  21  23  24  26 0
 3-21G
 ****
 27  28  34  35  38  39  40  41  42  43  44  45  46  47  48 0
 3-21G
 ****


