%nproc=1
%NoSave
%Mem=1900MB
#P OB98/GEN NMR

erre ene a

0 1
  C      521.475     112.342    -280.501
  O      522.416     112.284    -279.450
  H      520.712     111.575    -280.331
  H      521.958     112.147    -281.462
  H      520.984     113.321    -280.520
  P      523.681     113.265    -279.496
  C      522.362     115.390    -278.861
  O      523.372     114.468    -278.476
  C      522.465     116.668    -278.016
  O      521.772     117.722    -278.730
  C      521.816     116.514    -276.632
  O      522.683     116.874    -275.562
  C      520.509     117.283    -276.771
  O      519.994     117.793    -275.557
  C      520.842     118.346    -277.819
  N      519.675     118.854    -278.543
  C      518.792     119.670    -277.842
  O      518.931     120.022    -276.672
  N      517.703     120.109    -278.553
  C      517.417     119.813    -279.849
  O      516.425     120.239    -280.435
  C      518.374     118.924    -280.531
  C      519.442     118.490    -279.857
  O      524.114     113.700    -280.858
  O      524.835     112.448    -278.745
  H      519.975     117.061    -274.910
  H      525.451     112.068    -279.404
  H      517.063     120.712    -278.057
  H      518.169     118.659    -281.560
  H      520.171     117.837    -280.326
  H      521.340     119.200    -277.356
  H      519.747     116.603    -277.178
  H      521.584     115.458    -276.426
  H      523.518     116.957    -277.940
  H      521.389     114.912    -278.708
  H      522.472     115.640    -279.922
  P      523.169     115.880    -274.407
  C      525.561     115.270    -275.291
  O      524.767     115.944    -274.329
  O      522.543     114.524    -274.422
  O      522.691     116.619    -273.058
  H      522.469     115.916    -272.415
  H      526.597     115.429    -275.074
  H      525.339     115.650    -276.266
  H      525.347     114.222    -275.259

 6  7  8  9  10  11  12  13  14  15  16  26  31  32  33  34  35 0
 6-311+G(2d,p)
 ****
 36  37 0
 6-311+G(2d,p)
 ****
 1  2  3  4  5  17  18  19  20  21  22  23  24  25 0
 3-21G
 ****
 27  28  29  30  38  39  40  41  42  43  44  45 0
 3-21G
 ****


