%nproc=1
%NoSave
%Mem=1900MB
#P OB98/GEN NMR

erre ene a

0 1
  C      607.381    1263.164     885.531
  O      606.251    1263.801     884.902
  P      606.224    1263.918     883.312
  C      606.461    1266.394     882.543
  O      607.106    1265.164     882.821
  C      607.295    1267.602     883.075
  O      608.591    1267.663     882.367
  C      606.626    1268.978     882.882
  O      607.041    1269.797     883.973
  C      607.255    1269.482     881.595
  O      607.159    1270.879     881.425
  C      608.709    1268.976     881.779
  N      609.474    1268.920     880.534
  C      610.689    1269.619     880.516
  O      611.109    1270.315     881.427
  N      611.422    1269.466     879.341
  C      611.037    1268.794     878.227
  O      611.712    1268.737     877.200
  C      609.736    1268.108     878.300
  C      609.020    1268.205     879.445
  O      604.727    1264.441     883.046
  O      606.459    1262.651     882.558
  H      606.226    1271.096     881.246
  H      604.323    1263.941     882.324
  H      612.304    1269.937     879.300
  H      609.389    1267.537     877.436
  H      608.068    1267.698     879.540
  H      609.225    1269.610     882.508
  H      606.771    1268.991     880.743
  H      605.511    1268.915     882.819
  H      607.520    1267.419     884.136
  H      605.477    1266.422     883.009
  H      606.324    1266.493     881.459
  P      605.970    1270.844     884.591
  C      607.285    1273.079     884.169
  O      606.177    1272.250     883.831
  O      606.600    1271.121     886.018
  O      604.559    1270.321     884.663
  H      607.566    1271.247     886.001
  H      608.170    1272.500     884.344
  H      607.024    1273.637     885.065
  H      607.442    1273.780     883.350
  H      607.246    1263.166     886.593
  H      608.275    1263.698     885.284
  H      607.461    1262.155     885.184

 3  4  5  6  7  8  9  10  11  12  13  23  28  29  30  31  32 0
 6-311+G(2d,p)
 ****
 33  34 0
 6-311+G(2d,p)
 ****
 1  2  14  15  16  17  18  19  20  21  22  24  25  26 0
 3-21G
 ****
 27  35  36  37  38  39  40  41  42  43  44  45 0
 3-21G
 ****


