%nproc=1
%NoSave
%Mem=1900MB
#P OB98/GEN NMR

erre ene a

0 1
  C      297.729    -130.092      31.989
  O      298.349    -130.509      33.189
  H      296.674    -129.893      32.192
  H      297.798    -130.873      31.228
  H      298.193    -129.172      31.623
  P      299.881    -130.974      33.134
  C      300.949    -128.657      33.556
  O      300.703    -129.959      34.066
  C      302.451    -128.341      33.570
  O      302.675    -127.088      32.866
  C      303.037    -128.180      34.985
  O      304.411    -128.589      34.927
  C      302.932    -126.681      35.183
  O      303.706    -126.250      36.274
  C      303.331    -126.189      33.788
  N      302.961    -124.802      33.558
  C      304.014    -123.895      33.418
  O      305.181    -124.280      33.506
  N      303.726    -122.571      33.213
  C      302.489    -122.177      33.218
  N      302.267    -120.848      33.027
  C      301.348    -123.091      33.421
  C      301.653    -124.378      33.579
  O      300.452    -131.173      31.770
  O      299.902    -132.335      33.978
  H      303.507    -125.311      36.496
  H      299.970    -133.097      33.373
  H      300.336    -122.711      33.436
  H      300.880    -125.128      33.733
  H      304.413    -126.292      33.633
  H      301.898    -126.394      35.399
  H      302.501    -128.762      35.737
  H      302.979    -129.122      33.008
  H      303.080    -120.253      32.905
  H      300.413    -127.947      34.193
  H      301.354    -120.423      33.032
  H      300.566    -128.572      32.532
  P      304.898    -130.065      35.323
  C      304.469    -131.532      33.245
  O      305.433    -130.817      34.012
  O      303.891    -130.846      36.104
  O      306.227    -129.844      36.192
  H      306.303    -130.563      36.846
  H      304.949    -131.986      32.403
  H      303.713    -130.857      32.904
  H      304.022    -132.291      33.852

 6  7  8  9  10  11  12  13  14  15  16  26  30  31  32  33  35 0
 6-311+G(2d,p)
 ****
 37  38 0
 6-311+G(2d,p)
 ****
 1  2  3  4  5  17  18  19  20  21  22  23  24  25 0
 3-21G
 ****
 27  28  29  34  36  39  40  41  42  43  44  45  46 0
 3-21G
 ****


