%nproc=1
%NoSave
%Mem=1900MB
#P OB98/GEN NMR

erre ene a

0 1
  C      331.957     108.480      79.589
  O      331.254     109.042      78.500
  H      332.192     109.253      80.325
  H      331.326     107.724      80.064
  H      332.876     108.004      79.241
  P      331.997     110.209      77.687
  C      329.697     111.050      76.828
  O      331.016     110.640      76.487
  C      328.715     110.586      75.754
  O      329.133     111.143      74.483
  C      328.611     109.061      75.597
  O      327.258     108.635      75.795
  C      328.985     108.803      74.145
  O      328.174     107.808      73.521
  C      328.807     110.167      73.486
  N      328.917     110.038      68.393
  C      327.902     110.246      69.262
  N      327.954     110.375      70.600
  C      329.226     110.294      71.033
  C      330.365     110.110      70.268
  C      330.176     109.959      68.884
  N      331.202     109.691      68.010
  N      331.492     110.072      71.070
  C      331.033     110.189      72.301
  N      329.670     110.305      72.329
  O      333.185     109.437      76.939
  O      332.507     111.335      78.520
  H      327.258     108.146      73.535
  H      334.021     109.925      77.066
  H      326.910     110.310      68.818
  H      331.632     110.146      73.205
  H      327.770     110.337      73.166
  H      330.031     108.472      74.102
  H      329.273     108.518      76.276
  H      327.729     111.012      75.983
  H      329.660     112.142      76.897
  H      330.963     109.483      67.055
  H      332.127     109.523      68.385
  H      329.436     110.629      77.805
  P      327.012     107.525      76.933
  C      324.888     106.563      75.773
  O      325.446     107.170      76.932
  O      327.200     108.356      78.291
  O      327.943     106.360      76.857
  H      327.491     107.761      79.009
  H      323.843     106.391      75.928
  H      325.379     105.631      75.587
  H      325.022     107.211      74.932

 6  7  8  9  10  11  12  13  14  15  25  28  32  33  34  35 0
 6-311+G(2d,p)
 ****
 36  39  40 0
 6-311+G(2d,p)
 ****
 1  2  3  4  5  16  17  18  19  20  21  22  23  24 0
 3-21G
 ****
 26  27  29  30  31  37  38  41  42  43  44  45  46  47  48 0
 3-21G
 ****


