%nproc=1
%NoSave
%Mem=1900MB
#P OB98/GEN NMR

erre ene a

0 1
  C      -73.313      31.584    -129.065
  O      -72.296      32.593    -129.064
  P      -72.005      33.501    -130.355
  C      -73.634      35.303    -129.523
  O      -72.334      35.045    -130.042
  C      -74.038      36.782    -129.615
  O      -73.090      37.626    -128.907
  C      -74.140      37.336    -131.043
  O      -75.158      38.339    -131.005
  C      -72.773      37.970    -131.236
  O      -72.731      38.918    -132.294
  C      -72.545      38.567    -129.851
  N      -68.805      42.063    -129.962
  C      -70.140      42.174    -130.120
  N      -71.074      41.205    -130.039
  C      -70.516      40.025    -129.722
  C      -69.171      39.761    -129.522
  C      -68.289      40.847    -129.666
  N      -66.922      40.733    -129.553
  N      -68.970      38.424    -129.244
  C      -70.174      37.890    -129.288
  N      -71.144      38.817    -129.569
  O      -72.628      32.993    -131.616
  O      -70.408      33.487    -130.493
  H      -71.816      39.241    -132.379
  H      -70.170      33.330    -131.427
  H      -70.508      43.171    -130.347
  H      -70.400      36.841    -129.146
  H      -73.086      39.513    -129.731
  H      -72.042      37.186    -131.465
  H      -74.367      36.575    -131.792
  H      -74.999      36.893    -129.097
  H      -73.659      34.987    -128.474
  H      -66.367      41.547    -129.765
  H      -66.512      39.815    -129.460
  H      -74.358      34.692    -130.072
  P      -76.306      38.417    -132.118
  C      -77.736      36.647    -130.951
  O      -77.671      37.987    -131.402
  O      -76.005      37.683    -133.383
  O      -76.505      39.985    -132.383
  H      -76.952      40.115    -133.240
  H      -77.907      35.981    -131.803
  H      -78.567      36.547    -130.249
  H      -76.810      36.358    -130.445
  H      -73.338      31.102    -128.110
  H      -73.098      30.861    -129.824
  H      -74.263      32.035    -129.261

 3  4  5  6  7  8  9  10  11  12  22  25  29  30  31  32 0
 6-311+G(2d,p)
 ****
 33  36  37 0
 6-311+G(2d,p)
 ****
 1  2  13  14  15  16  17  18  19  20  21  23  24  26 0
 3-21G
 ****
 27  28  34  35  38  39  40  41  42  43  44  45  46  47  48 0
 3-21G
 ****


