%nproc=1
%NoSave
%Mem=1900MB
#P OB98/GEN NMR

erre ene a

0 1
  C       84.148      85.673     425.714
  O       85.004      84.997     424.809
  P       86.134      85.790     423.985
  C       85.092      85.631     421.624
  O       85.352      86.455     422.757
  C       85.338      86.421     420.337
  O       84.374      87.484     420.228
  C       86.704      87.088     420.262
  O       87.721      86.145     419.957
  C       86.444      88.147     419.192
  O       86.504      87.560     417.884
  C       84.999      88.573     419.513
  N       84.927      89.818     420.275
  C       84.748      90.995     419.540
  O       84.654      90.963     418.308
  N       84.653      92.188     420.211
  C       84.747      92.206     421.510
  N       84.575      93.407     422.128
  C       84.989      90.997     422.321
  C       85.061      89.852     421.647
  O       87.321      84.973     423.603
  O       86.486      87.051     424.897
  H       87.451      87.394     417.696
  H       87.199      86.876     425.560
  H       85.078      91.072     423.395
  H       85.218      88.920     422.169
  H       84.424      88.693     418.585
  H       87.158      88.980     419.219
  H       86.942      87.580     421.217
  H       85.198      85.740     419.489
  H       84.241      94.175     421.555
  H       84.041      85.318     421.655
  H       84.345      93.465     423.112
  H       85.729      84.741     421.668
  P       89.181      86.421     420.558
  C       89.658      88.004     418.554
  O       89.640      87.842     419.968
  O       90.096      85.357     419.780
  O       89.279      86.280     422.035
  H       90.287      84.584     420.355
  H       89.753      89.072     418.332
  H       88.733      87.635     418.110
  H       90.518      87.480     418.131
  H       83.472      84.972     426.157
  H       83.592      86.421     425.188
  H       84.734      86.137     426.480

 3  4  5  6  7  8  9  10  11  12  13  23  27  28  29  30  32 0
 6-311+G(2d,p)
 ****
 34  35 0
 6-311+G(2d,p)
 ****
 1  2  14  15  16  17  18  19  20  21  22  24  25  26 0
 3-21G
 ****
 31  33  36  37  38  39  40  41  42  43  44  45  46 0
 3-21G
 ****


