%nproc=1
%NoSave
%Mem=1900MB
#P OB98/GEN NMR

erre ene a

0 1
  C       21.562    -448.943     241.104
  O       21.944    -449.385     242.410
  P       23.440    -449.936     242.597
  C       24.253    -448.013     244.152
  O       24.402    -448.695     242.915
  C       25.616    -447.810     244.811
  O       26.554    -447.202     243.899
  C       25.570    -446.876     246.011
  O       25.059    -447.550     247.146
  C       27.033    -446.462     246.149
  O       27.761    -447.354     247.006
  C       27.554    -446.545     244.692
  N       27.896    -445.243     244.145
  C       28.322    -445.230     242.810
  O       28.413    -446.284     242.182
  N       28.656    -444.029     242.240
  C       28.598    -442.937     242.945
  N       28.946    -441.781     242.325
  C       28.179    -442.911     244.360
  C       27.849    -444.087     244.893
  O       23.859    -450.366     241.117
  O       23.545    -451.080     243.553
  H       27.555    -448.257     246.678
  H       24.461    -451.128     241.143
  H       28.156    -441.983     244.909
  H       27.528    -444.166     245.929
  H       28.453    -447.172     244.650
  H       27.120    -445.456     246.584
  H       24.952    -445.995     245.778
  H       26.006    -448.791     245.114
  H       29.229    -441.837     241.354
  H       23.595    -448.578     244.819
  H       28.944    -440.879     242.781
  H       23.756    -447.047     243.965
  P       24.684    -446.676     248.430
  C       22.178    -447.083     248.042
  O       23.201    -446.120     248.135
  O       25.576    -445.358     248.207
  O       24.912    -447.284     249.771
  H       25.508    -444.773     248.986
  H       21.210    -446.576     248.051
  H       22.220    -447.775     248.894
  H       22.272    -447.638     247.103
  H       20.547    -448.605     241.125
  H       21.653    -449.754     240.412
  H       22.200    -448.140     240.799

 3  4  5  6  7  8  9  10  11  12  13  21  23  27  28  29  30  32 0
 6-311+G(2d,p)
 ****
 34  35 0
 6-311+G(2d,p)
 ****
 1  2  14  15  16  17  18  19  20  22  24  25  26 0
 3-21G
 ****
 31  33  36  37  38  39  40  41  42  43  44  45  46 0
 3-21G
 ****


