%nproc=1
%NoSave
%Mem=1900MB
#P OB98/GEN NMR

erre ene a

0 1
  C      827.213    -560.485      86.488
  O      828.272    -561.278      85.975
  H      827.310    -560.455      87.588
  H      826.253    -560.934      86.237
  H      827.266    -559.465      86.107
  P      828.461    -561.358      84.390
  C      830.514    -562.911      84.650
  O      829.220    -562.740      84.093
  C      830.852    -564.388      84.748
  O      830.268    -564.956      85.938
  C      830.316    -565.221      83.588
  O      831.113    -565.045      82.430
  C      830.372    -566.622      84.191
  O      831.696    -567.154      84.107
  C      829.972    -566.338      85.657
  N      828.545    -566.654      85.923
  C      828.205    -567.989      85.922
  O      829.001    -568.896      85.680
  N      826.880    -568.261      86.171
  C      825.897    -567.344      86.333
  O      824.705    -567.633      86.472
  C      826.313    -565.938      86.302
  C      827.620    -565.657      86.085
  O      829.062    -560.161      83.740
  O      826.980    -561.647      83.839
  H      831.815    -567.451      83.181
  H      826.619    -560.832      83.442
  H      826.590    -569.224      86.172
  H      825.560    -565.175      86.413
  H      827.942    -564.627      86.051
  H      830.586    -566.956      86.333
  H      829.706    -567.323      83.666
  H      829.269    -564.961      83.395
  H      831.948    -564.498      84.841
  H      830.511    -562.472      85.661
  H      831.241    -562.386      84.029
  P      830.400    -564.889      80.995
  C      832.709    -565.407      79.973
  O      831.311    -565.670      79.913
  O      830.014    -563.503      80.615
  O      829.103    -565.837      81.122
  H      828.310    -565.289      80.984
  H      833.211    -565.973      79.217
  H      833.084    -565.686      80.936
  H      832.883    -564.364      79.812

 6  7  8  9  10  11  12  13  14  15  16  26  31  32  33  34  35 0
 6-311+G(2d,p)
 ****
 36  37 0
 6-311+G(2d,p)
 ****
 1  2  3  4  5  17  18  19  20  21  22  23  24  25 0
 3-21G
 ****
 27  28  29  30  38  39  40  41  42  43  44  45 0
 3-21G
 ****


