%nproc=1
%NoSave
%Mem=1900MB
#P OB98/GEN NMR

erre ene a

0 1
  C      100.318      95.096       0.885
  O      101.166      94.862      -0.226
  P      102.401      93.836      -0.139
  C      101.220      91.702      -0.999
  O      101.739      92.399       0.120
  C      101.523      90.206      -0.882
  O      102.951      90.037      -0.684
  C      100.808      89.506       0.281
  O      100.493      88.178      -0.152
  C      101.869      89.479       1.363
  O      101.631      88.473       2.338
  C      103.133      89.269       0.522
  N      104.346      89.673       1.224
  C      105.063      88.687       1.903
  O      104.669      87.522       1.927
  N      106.222      89.043       2.547
  C      106.585      90.288       2.584
  N      107.771      90.580       3.184
  C      105.799      91.376       1.973
  C      104.718      90.996       1.299
  O      103.463      94.217       0.832
  O      102.908      93.702      -1.646
  H      102.255      88.608       3.076
  H      103.546      94.413      -1.904
  H      106.129      92.402       2.055
  H      104.094      91.722       0.798
  H      103.215      88.219       0.218
  H      101.892      90.445       1.876
  H       99.888      90.016       0.580
  H      101.266      89.726      -1.833
  H      108.361      89.794       3.435
  H      101.702      92.089      -1.901
  H      108.265      91.440       2.971
  H      100.143      91.880      -1.080
  P       99.271      87.416       0.557
  C       97.545      87.809      -1.340
  O       97.905      88.046       0.003
  O       99.335      88.017       2.046
  O       99.356      85.927       0.608
  H       98.938      87.376       2.664
  H       96.591      88.305      -1.539
  H       97.425      86.739      -1.523
  H       98.299      88.220      -2.017
  H       99.566      95.808       0.616
  H      100.896      95.479       1.700
  H       99.852      94.178       1.178

 3  4  5  6  7  8  9  10  11  12  13  23  27  28  29  30  32 0
 6-311+G(2d,p)
 ****
 34  35 0
 6-311+G(2d,p)
 ****
 1  2  14  15  16  17  18  19  20  21  22  24  25  26 0
 3-21G
 ****
 31  33  36  37  38  39  40  41  42  43  44  45  46 0
 3-21G
 ****


