%nproc=1
%NoSave
%Mem=1900MB
#P OB98/GEN NMR

erre ene a

0 1
  C     -146.116     257.254     355.584
  O     -146.045     258.326     354.664
  H     -145.431     257.455     356.411
  H     -145.819     256.320     355.098
  H     -147.131     257.159     355.981
  P     -147.000     258.232     353.379
  C     -145.831     258.117     351.058
  O     -146.174     257.434     352.258
  C     -144.509     258.856     351.247
  O     -143.476     257.921     351.635
  C     -143.996     259.531     349.986
  O     -144.657     260.754     349.716
  C     -142.523     259.701     350.322
  O     -142.297     260.874     351.112
  C     -142.220     258.440     351.144
  N     -138.375     257.641     347.881
  C     -138.766     258.739     348.562
  N     -139.797     258.868     349.425
  C     -140.436     257.694     349.575
  C     -140.148     256.491     348.952
  C     -139.059     256.488     348.068
  N     -138.674     255.376     347.355
  N     -141.055     255.522     349.333
  C     -141.868     256.122     350.176
  N     -141.532     257.435     350.356
  O     -147.023     259.738     352.836
  O     -148.375     257.717     353.645
  H     -141.345     260.876     351.332
  H     -147.843     260.176     353.126
  H     -138.181     259.637     348.386
  H     -142.713     255.657     350.671
  H     -141.593     258.656     352.015
  H     -141.924     259.790     349.417
  H     -144.083     258.849     349.129
  H     -144.630     259.583     352.058
  H     -146.619     258.838     350.812
  H     -145.751     257.386     350.244
  H     -137.925     255.463     346.689
  H     -139.247     254.544     347.399
  P     -144.815     261.198     348.185
  C     -143.392     263.304     347.595
  O     -143.438     261.891     347.746
  O     -145.851     262.416     348.242
  O     -145.279     260.115     347.270
  H     -146.426     262.398     347.452
  H     -142.407     263.599     347.301
  H     -143.641     263.770     348.525
  H     -144.094     263.606     346.846

 6  7  8  9  10  11  12  13  14  15  25  28  32  33  34  35 0
 6-311+G(2d,p)
 ****
 36  37  40 0
 6-311+G(2d,p)
 ****
 1  2  3  4  5  16  17  18  19  20  21  22  23  24 0
 3-21G
 ****
 26  27  29  30  31  38  39 41  42  43  44  45  46  47  48 0
 3-21G
 ****


