%nproc=1
%NoSave
%Mem=1900MB
#P OB98/GEN NMR

erre ene a

0 1
  C     -125.346    -106.588     365.443
  O     -125.582    -106.957     366.799
  P     -124.349    -107.587     367.621
  C     -124.454    -110.177     367.840
  O     -124.138    -109.062     367.008
  C     -125.943    -110.482     367.786
  O     -126.400    -110.495     366.412
  C     -126.333    -111.843     368.354
  O     -126.451    -111.818     369.768
  C     -127.705    -112.036     367.718
  O     -128.698    -111.278     368.431
  C     -127.497    -111.449     366.318
  N     -129.443    -114.725     362.901
  C     -130.037    -113.909     363.809
  N     -129.442    -113.077     364.698
  C     -128.105    -113.155     364.606
  C     -127.367    -113.968     363.760
  C     -128.090    -114.778     362.863
  N     -127.489    -115.582     361.926
  N     -126.017    -113.787     363.960
  C     -125.933    -112.869     364.906
  N     -127.174    -112.446     365.318
  O     -124.984    -107.866     369.064
  O     -123.130    -106.729     367.691
  H     -128.537    -111.427     369.389
  H     -124.275    -107.900     369.731
  H     -131.121    -113.927     363.823
  H     -125.012    -112.469     365.305
  H     -128.374    -110.898     365.961
  H     -128.034    -113.086     367.736
  H     -125.652    -112.631     368.012
  H     -126.482    -109.680     368.308
  H     -124.180    -109.941     368.877
  H     -128.075    -115.985     361.196
  H     -126.493    -115.463     361.761
  H     -123.873    -111.040     367.512
  P     -126.470    -113.237     370.520
  C     -128.896    -113.504     371.440
  O     -127.973    -113.772     370.397
  O     -126.330    -112.836     372.064
  O     -125.390    -114.180     370.076
  H     -125.933    -113.569     372.569
  H     -129.901    -113.651     371.068
  H     -128.795    -112.472     371.802
  H     -128.717    -114.201     372.274
  H     -126.244    -106.186     365.021
  H     -125.045    -107.450     364.886
  H     -124.572    -105.850     365.404

 3  4  5  6  7  8  9  10  11  12  22  25  29  30  31  32 0
 6-311+G(2d,p)
 ****
 33  36  37 0
 6-311+G(2d,p)
 ****
 1  2  13  14  15  16  17  18  19  20  21  23  24  26 0
 3-21G
 ****
 27  28  34  35  38  39  40  41  42  43  44  45  46  47  48 0
 3-21G
 ****


