%nproc=1
%NoSave
%Mem=1900MB
#P OB98/GEN NMR

erre ene a

0 1
  C     -105.391     254.310     466.461
  O     -103.983     254.219     466.535
  H     -105.659     255.334     466.186
  H     -105.840     254.079     467.433
  H     -105.779     253.629     465.698
  P     -103.323     252.830     466.989
  C     -102.225     253.715     469.153
  O     -102.014     253.197     467.843
  C     -101.376     254.975     469.368
  O     -101.962     256.038     468.569
  C     -101.359     255.428     470.837
  O     -100.037     255.609     471.348
  C     -102.289     256.635     470.844
  O     -102.030     257.573     471.869
  C     -102.153     257.186     469.421
  N     -103.306     257.969     468.976
  C     -103.441     259.257     469.483
  O     -102.652     259.793     470.262
  N     -104.545     259.945     469.056
  C     -105.499     259.493     468.198
  O     -106.464     260.159     467.843
  C     -105.316     258.112     467.714
  C     -104.243     257.426     468.114
  O     -103.098     251.833     465.901
  O     -104.328     252.273     468.101
  H     -101.263     258.113     471.588
  H     -104.883     251.565     467.715
  H     -104.643     260.885     469.408
  H     -106.058     257.712     467.033
  H     -104.078     256.406     467.775
  H     -101.269     257.821     469.339
  H     -103.317     256.275     470.988
  H     -101.776     254.655     471.488
  H     -100.365     254.792     468.987
  H     -101.939     252.939     469.871
  H     -103.288     253.952     469.287
  P      -99.536     255.091     472.771
  C      -98.356     257.372     473.310
  O      -98.260     255.960     473.201
  O      -99.429     253.612     472.922
  O     -100.689     255.601     473.777
  H     -100.757     254.933     474.494
  H      -97.409     257.772     473.606
  H      -99.094     257.624     474.043
  H      -98.638     257.784     472.364

 6  7  8  9  10  11  12  13  14  15  16  26  31  32  33  34  35 0
 6-311+G(2d,p)
 ****
 36  37 0
 6-311+G(2d,p)
 ****
 1  2  3  4  5  17  18  19  20  21  22  23  24  25 0
 3-21G
 ****
 27  28  29  30  38  39  40  41  42  43  44  45 0
 3-21G
 ****


