%nproc=1
%NoSave
%Mem=1900MB
#P OB98/GEN NMR

erre ene a

0 1
  C      276.595     423.548    -284.491
  O      275.808     422.378    -284.534
  P      274.267     422.408    -284.081
  C      274.775     421.311    -281.806
  O      274.275     422.455    -282.467
  C      274.717     421.508    -280.294
  O      275.561     422.612    -279.879
  C      273.336     421.877    -279.770
  O      272.316     420.904    -279.879
  C      273.670     422.374    -278.375
  O      273.829     421.293    -277.462
  C      275.016     423.097    -278.622
  N      274.872     424.556    -278.617
  C      275.630     425.236    -277.670
  O      276.385     424.681    -276.874
  N      275.463     426.598    -277.643
  C      274.607     427.321    -278.424
  O      274.472     428.536    -278.315
  C      273.817     426.540    -279.386
  C      273.984     425.212    -279.447
  O      273.414     421.339    -284.662
  O      273.797     423.899    -284.464
  H      272.960     420.837    -277.412
  H      274.298     424.610    -284.028
  H      275.994     427.107    -276.958
  H      273.134     427.083    -280.032
  H      273.407     424.619    -280.151
  H      275.741     422.823    -277.841
  H      272.877     423.020    -277.977
  H      272.969     422.740    -280.356
  H      275.108     420.606    -279.816
  H      275.816     421.158    -282.102
  H      274.208     420.420    -282.117
  P      270.769     421.267    -280.113
  C      270.310     421.009    -277.571
  O      270.162     421.812    -278.730
  O      269.959     420.276    -280.873
  O      270.882     422.617    -280.983
  H      270.117     422.679    -281.573
  H      269.816     421.516    -276.743
  H      271.374     420.901    -277.317
  H      269.861     420.033    -277.718
  H      277.585     423.324    -284.829
  H      276.636     423.914    -283.486
  H      276.161     424.293    -285.125

 3  4  5  6  7  8  9  10  11  12  13  23  28  29  30  31  32 0
 6-311+G(2d,p)
 ****
 33  34 0
 6-311+G(2d,p)
 ****
 1  2  14  15  16  17  18  19  20  21  22  24  25  26  27 0
 3-21G
 ****
 35  36  37  38  39  40  41  42  43  44  45 0
 3-21G
 ****


