%nproc=1
%NoSave
%Mem=1900MB
#P OB98/GEN NMR

erre ene a

0 1
  C      132.076     430.221     221.421
  O      130.695     430.543     221.456
  P      130.027     430.801     222.892
  C      131.520     432.897     223.253
  O      131.089     431.639     223.756
  C      131.817     433.869     224.400
  O      132.371     435.092     223.840
  C      130.589     434.263     225.236
  O      131.044     434.434     226.583
  C      130.193     435.594     224.618
  O      129.328     436.375     225.424
  C      131.573     436.185     224.344
  N      129.490     440.733     223.278
  C      129.365     439.913     224.347
  N      129.957     438.723     224.564
  C      130.760     438.398     223.539
  C      130.976     439.122     222.375
  C      130.298     440.344     222.265
  N      130.420     441.176     221.164
  N      131.847     438.455     221.535
  C      132.155     437.351     222.184
  N      131.538     437.279     223.402
  O      130.061     429.354     223.571
  O      128.640     431.371     222.854
  H      129.173     437.240     225.001
  H      129.250     429.192     224.093
  H      128.700     440.266     225.135
  H      132.796     436.565     221.804
  H      132.051     436.551     225.262
  H      129.666     435.403     223.674
  H      129.792     433.513     225.223
  H      132.585     433.423     225.042
  H      130.731     433.329     222.632
  H      129.745     441.922     221.090
  H      130.851     440.782     220.334
  H      132.406     432.752     222.624
  P      130.015     434.198     227.790
  C      130.250     431.640     227.805
  O      129.413     432.737     227.499
  O      128.796     435.146     227.339
  O      130.534     434.467     229.157
  H      128.532     434.970     226.412
  H      129.684     430.716     227.654
  H      130.583     431.686     228.843
  H      131.114     431.637     227.133
  H      132.383     430.077     220.406
  H      132.247     429.323     221.976
  H      132.640     431.021     221.854

 3  4  5  6  7  8  9  10  11  12  22  25  29  30  31  32 0
 6-311+G(2d,p)
 ****
 33  36  37 0
 6-311+G(2d,p)
 ****
 1  2  13  14  15  16  17  18  19  20  21  23  24  26 0
 3-21G
 ****
 27  28  34  35  38  39  40  41  42  43  44  45  46  47  48 0
 3-21G
 ****


