%nproc=1
%NoSave
%Mem=1900MB
#P OB98/GEN NMR

erre ene a

0 1
  C      -64.222     -66.953    -179.410
  O      -64.263     -65.663    -179.988
  H      -64.242     -66.850    -178.322
  H      -63.302     -67.465    -179.701
  H      -65.091     -67.536    -179.725
  P      -64.259     -65.599    -181.590
  C      -65.878     -64.044    -182.916
  O      -64.818     -64.147    -181.978
  C      -66.852     -62.936    -182.502
  O      -67.625     -63.397    -181.353
  C      -66.164     -61.628    -182.077
  O      -67.061     -60.543    -182.367
  C      -66.056     -61.812    -180.571
  O      -65.747     -60.595    -179.934
  C      -67.422     -62.435    -180.295
  N      -69.850     -62.444    -175.797
  C      -70.035     -61.711    -176.916
  N      -69.357     -61.774    -178.080
  C      -68.410     -62.727    -178.029
  C      -68.111     -63.559    -176.962
  C      -68.879     -63.387    -175.798
  N      -68.689     -64.126    -174.653
  N      -67.070     -64.411    -177.284
  C      -66.750     -64.097    -178.524
  N      -67.526     -63.083    -179.010
  O      -65.448     -66.588    -182.000
  O      -62.971     -65.972    -182.244
  H      -66.393     -59.899    -180.181
  H      -65.091     -67.474    -182.198
  H      -70.833     -60.975    -176.871
  H      -65.964     -64.562    -179.107
  H      -68.227     -61.694    -180.362
  H      -65.250     -62.512    -180.322
  H      -65.209     -61.457    -182.580
  H      -67.568     -62.766    -183.316
  H      -66.402     -65.005    -182.954
  H      -65.468     -63.819    -183.905
  H      -69.272     -63.930    -173.855
  H      -67.957     -64.821    -174.633
  P      -66.718     -59.546    -183.580
  C      -67.991     -57.611    -184.795
  O      -67.819     -58.381    -183.614
  O      -67.127     -60.425    -184.858
  O      -65.294     -59.107    -183.675
  H      -66.590     -60.153    -185.626
  H      -68.762     -56.886    -184.639
  H      -68.266     -58.255    -185.604
  H      -67.075     -57.112    -185.032

 6  7  8  9  10  11  12  13  14  15  25  28  32  33  34  35 0
 6-311+G(2d,p)
 ****
 36  37  40 0
 6-311+G(2d,p)
 ****
 1  2  3  4  5  16  17  18  19  20  21  22  23  24 0
 3-21G
 ****
 26  27  29  30  31  38  39 41  42  43  44  45  46  47  48 0
 3-21G
 ****


