%nproc=1
%NoSave
%Mem=1900MB
#P OB98/GEN NMR

erre ene a

0 1
  C      182.037    -287.074     153.590
  O      180.664    -286.720     153.596
  H      182.179    -287.917     154.266
  H      182.644    -286.239     153.937
  H      182.354    -287.366     152.582
  P      180.209    -285.567     152.576
  C      178.948    -287.253     151.041
  O      179.981    -286.290     151.154
  C      179.091    -288.018     149.721
  O      179.153    -287.052     148.639
  C      180.367    -288.869     149.658
  O      180.085    -290.065     148.956
  C      181.322    -288.006     148.841
  O      182.357    -288.739     148.209
  C      180.348    -287.338     147.867
  N      180.902    -286.105     147.295
  C      180.553    -285.794     145.985
  O      179.762    -286.446     145.304
  N      181.149    -284.687     145.450
  C      182.060    -283.883     146.080
  O      182.571    -282.909     145.556
  C      182.382    -284.252     147.466
  C      181.807    -285.338     147.995
  O      181.547    -284.718     152.355
  O      179.070    -284.717     153.036
  H      181.616    -284.005     152.999
  H      181.933    -289.487     147.723
  H      180.904    -284.448     144.507
  H      183.116    -283.654     147.990
  H      182.041    -285.658     149.009
  H      180.071    -288.026     147.072
  H      181.799    -287.259     149.488
  H      180.779    -289.103     150.641
  H      178.204    -288.616     149.568
  H      177.974    -286.737     151.067
  H      179.010    -287.944     151.891
  P      179.177    -291.183     149.689
  C      177.398    -290.851     147.797
  O      177.672    -290.901     149.194
  O      179.203    -290.632     151.188
  O      179.678    -292.571     149.487
  H      179.191    -289.660     151.261
  H      176.357    -290.656     147.644
  H      177.654    -291.788     147.349
  H      177.977    -290.071     147.348

 6  7  8  9  10  11  12  13  14  15  16  27  31  32  33  34  35 0
 6-311+G(2d,p)
 ****
 36  37 0
 6-311+G(2d,p)
 ****
 1  2  3  4  5  17  18  19  20  21  22  23  24  25 0
 3-21G
 ****
 26  28  29  30  38  39  40  41  42  43  44  45 0
 3-21G
 ****


