%nproc=1
%NoSave
%Mem=1900MB
#P OB98/GEN NMR

erre ene a

0 1
  C      -51.967     281.898    -192.234
  O      -50.966     281.335    -191.412
  H      -51.530     282.730    -192.795
  H      -52.782     282.282    -191.613
  H      -52.357     281.163    -192.941
  P      -51.236     279.913    -190.727
  C      -49.789     277.875    -190.084
  O      -49.807     279.252    -190.428
  C      -48.427     277.248    -190.406
  O      -48.297     277.121    -191.847
  C      -47.270     278.137    -189.933
  O      -46.099     277.387    -189.628
  C      -46.997     279.012    -191.153
  O      -45.679     279.553    -191.167
  C      -47.277     278.029    -192.290
  N      -46.173     279.045    -197.166
  C      -45.369     278.500    -196.184
  N      -44.105     278.179    -196.551
  N      -45.760     278.306    -194.952
  C      -47.021     278.739    -194.709
  C      -47.904     279.317    -195.591
  C      -47.476     279.495    -196.964
  O      -48.138     279.994    -197.862
  N      -49.094     279.631    -194.975
  C      -48.927     279.252    -193.727
  N      -47.696     278.681    -193.518
  O      -51.786     279.012    -191.937
  O      -52.190     279.922    -189.573
  H      -45.635     280.205    -191.889
  H      -52.303     278.262    -191.592
  H      -45.833     279.148    -198.108
  H      -49.662     279.352    -192.944
  H      -46.375     277.437    -192.518
  H      -47.697     279.853    -191.135
  H      -43.712     278.494    -197.429
  H      -47.535     278.752    -189.071
  H      -43.423     278.076    -195.794
  H      -48.368     276.235    -189.988
  H      -50.583     277.389    -190.658
  H      -50.031     277.744    -189.028
  P      -45.668     277.227    -188.093
  C      -44.564     275.267    -186.703
  O      -44.719     275.953    -187.922
  O      -47.019     276.805    -187.358
  O      -45.061     278.466    -187.492
  H      -47.293     277.494    -186.724
  H      -43.882     274.454    -186.836
  H      -45.512     274.888    -186.384
  H      -44.180     275.937    -185.963

 6  7  8  9  10  11  12  13  14  15  26  29  33  34 0
 6-311+G(2d,p)
 ****
 36  38  39  40  41 0
 6-311+G(2d,p)
 ****
 1  2  3  4  5  16  17  18  19  20  21  22  23  24  25 0
 3-21G
 ****
 27  28  30  31  32  35  37  42  43  44  45  46  47 0
 3-21G
 ****
 48  49 0
 3-21G
 ****


