%nproc=1
%NoSave
%Mem=1900MB
#P OB98/GEN NMR

erre ene a

0 1
  C     -228.107     571.708     -52.541
  O     -227.796     571.577     -53.914
  P     -227.908     570.156     -54.643
  C     -230.278     570.881     -55.355
  O     -229.481     569.859     -54.761
  C     -230.475     570.618     -56.849
  O     -229.262     570.894     -57.577
  C     -230.841     569.179     -57.183
  O     -232.207     568.934     -56.892
  C     -230.488     569.124     -58.662
  O     -231.544     569.661     -59.472
  C     -229.237     570.026     -58.729
  N     -227.999     569.258     -58.799
  C     -227.278     569.371     -59.994
  O     -227.710     570.060     -60.919
  N     -226.107     568.664     -60.129
  C     -225.713     567.887     -59.161
  N     -224.552     567.203     -59.360
  C     -226.461     567.717     -57.904
  C     -227.584     568.422     -57.791
  O     -227.093     569.063     -54.039
  O     -227.496     570.492     -56.156
  H     -232.280     569.020     -59.420
  H     -226.521     570.639     -56.239
  H     -226.096     567.054     -57.133
  H     -228.197     568.353     -56.901
  H     -229.279     570.680     -59.610
  H     -230.310     568.099     -59.003
  H     -230.195     568.493     -56.623
  H     -231.253     571.302     -57.214
  H     -224.085     567.323     -60.249
  H     -229.762     571.839     -55.222
  H     -224.174     566.551     -58.693
  H     -231.242     570.935     -54.840
  P     -232.717     567.432     -56.671
  C     -232.550     567.206     -54.122
  O     -231.986     566.852     -55.370
  O     -232.661     566.553     -57.879
  O     -234.228     567.623     -56.181
  H     -234.797     566.978     -56.647
  H     -232.189     566.505     -53.364
  H     -233.642     567.159     -54.156
  H     -232.235     568.215     -53.851
  H     -227.972     572.726     -52.240
  H     -227.460     571.078     -51.967
  H     -229.124     571.419     -52.377

 3  4  5  6  7  8  9  10  11  12  13  23  27  28  29  30  32 0
 6-311+G(2d,p)
 ****
 34  35 0
 6-311+G(2d,p)
 ****
 1  2  14  15  16  17  18  19  20  21  22  24  25  26 0
 3-21G
 ****
 31  33  36  37  38  39  40  41  42  43  44  45  46 0
 3-21G
 ****


