%nproc=1
%NoSave
%Mem=1900MB
#P OB98/GEN NMR

erre ene a

0 1
  C      221.748    -138.228     100.444
  O      223.104    -137.992     100.751
  H      221.174    -137.333     100.702
  H      221.358    -139.067     101.024
  H      221.626    -138.423      99.375
  P      224.148    -139.210     100.648
  C      225.315    -139.020      98.369
  O      225.357    -138.642      99.742
  C      226.505    -138.450      97.595
  O      226.370    -137.008      97.488
  C      227.864    -138.740      98.244
  O      228.777    -139.202      97.244
  C      228.305    -137.384      98.778
  O      229.720    -137.298      98.919
  C      227.669    -136.441      97.751
  N      227.574    -135.065      98.224
  C      228.006    -134.069      97.341
  O      228.471    -134.378      96.240
  N      227.935    -132.759      97.733
  C      227.522    -132.466      98.927
  N      227.486    -131.146      99.258
  C      227.100    -133.485      99.911
  C      227.146    -134.751      99.492
  O      223.562    -140.497     100.176
  O      224.804    -139.299     102.104
  H      230.132    -137.504      98.050
  H      225.209    -140.193     102.227
  H      226.773    -133.193     100.896
  H      226.846    -135.568     100.145
  H      228.239    -136.447      96.812
  H      227.855    -137.217      99.765
  H      227.815    -139.484      99.037
  H      226.462    -138.835      96.568
  H      227.782    -130.478      98.557
  H      224.373    -138.666      97.938
  H      227.189    -130.803     100.161
  H      225.347    -140.115      98.316
  P      229.273    -140.724      97.389
  C      227.542    -141.452      95.604
  O      228.894    -141.495      96.031
  O      228.264    -141.333      98.471
  O      230.695    -140.853      97.822
  H      228.688    -141.367      99.347
  H      227.438    -142.004      94.693
  H      227.252    -140.435      95.440
  H      226.916    -141.885      96.357

 6  7  8  9  10  11  12  13  14  15  16  26  30  31  32  33  35 0
 6-311+G(2d,p)
 ****
 37  38 0
 6-311+G(2d,p)
 ****
 1  2  3  4  5  17  18  19  20  21  22  23  24  25 0
 3-21G
 ****
 27  28  29  34  36  39  40  41  42  43  44  45  46 0
 3-21G
 ****


