%nproc=1
%NoSave
%Mem=1900MB
#P OB98/GEN NMR

erre ene a

0 1
  C      372.261    -503.729    -589.330
  O      371.460    -504.091    -590.441
  H      373.309    -503.701    -589.646
  H      372.151    -504.470    -588.529
  H      371.973    -502.737    -588.962
  P      369.885    -504.249    -590.160
  C      369.308    -503.366    -592.531
  O      369.194    -504.438    -591.598
  C      368.361    -503.590    -593.708
  O      368.740    -504.762    -594.478
  C      366.897    -503.785    -593.317
  O      366.259    -502.531    -593.119
  C      366.359    -504.537    -594.523
  O      366.083    -503.634    -595.612
  C      367.541    -505.465    -594.883
  N      366.617    -510.368    -595.665
  C      366.499    -509.294    -596.525
  N      366.028    -509.550    -597.764
  N      366.786    -508.060    -596.186
  C      367.188    -507.939    -594.899
  C      367.349    -508.924    -593.957
  C      367.083    -510.287    -594.358
  O      367.249    -511.301    -593.675
  N      367.800    -508.413    -592.763
  C      367.858    -507.105    -592.971
  N      367.505    -506.770    -594.259
  O      369.441    -502.773    -589.729
  O      369.513    -505.250    -589.123
  H      366.769    -502.951    -595.642
  H      368.766    -502.845    -589.020
  H      366.411    -511.296    -595.992
  H      368.179    -506.378    -592.243
  H      367.611    -505.642    -595.963
  H      365.423    -505.050    -594.292
  H      365.519    -510.399    -597.984
  H      366.817    -504.422    -592.420
  H      365.856    -508.741    -598.359
  H      368.466    -502.723    -594.387
  H      370.350    -503.337    -592.904
  H      369.075    -502.424    -592.037
  P      364.919    -502.508    -592.232
  C      365.817    -500.565    -590.767
  O      364.770    -501.039    -591.598
  O      365.309    -503.419    -590.962
  O      363.703    -503.034    -592.931
  H      364.864    -504.299    -591.045
  H      365.580    -499.581    -590.421
  H      366.730    -500.537    -591.325
  H      365.931    -501.220    -589.929

 6  7  8  9  10  11  12  13  14  15  26  29  33  34 0
 6-311+G(2d,p)
 ****
 36  38  39  40  41 0
 6-311+G(2d,p)
 ****
 1  2  3  4  5  16  17  18  19  20  21  22  23  24  25 0
 3-21G
 ****
 27  28  30  31  32  35  37  42  43  44  45  46  47 0
 3-21G
 ****
 48  49 0
 3-21G
 ****


