%nproc=1
%NoSave
%Mem=1900MB
#P OB98/GEN NMR

erre ene a

0 1
  C      119.670    -447.938      25.442
  O      119.101    -448.949      26.248
  H      120.526    -447.509      25.971
  H      118.943    -447.145      25.253
  H      120.023    -448.355      24.493
  P      117.818    -449.739      25.695
  C      118.941    -451.860      26.671
  O      117.762    -451.075      26.590
  C      118.765    -452.969      27.704
  O      118.618    -452.434      29.035
  C      117.529    -453.842      27.507
  O      117.633    -454.749      26.421
  C      117.488    -454.550      28.850
  O      118.499    -455.573      28.887
  C      117.830    -453.384      29.806
  N      116.642    -452.738      30.361
  C      116.247    -453.145      31.643
  O      116.875    -454.013      32.247
  N      115.119    -452.587      32.198
  C      114.431    -451.715      31.522
  N      113.317    -451.201      32.119
  C      114.804    -451.272      30.162
  C      115.902    -451.813      29.651
  O      117.769    -449.954      24.215
  O      116.567    -448.917      26.261
  H      119.326    -455.165      28.581
  H      115.744    -449.357      25.937
  H      114.178    -450.567      29.634
  H      116.237    -451.548      28.651
  H      118.465    -453.733      30.633
  H      116.528    -455.026      29.056
  H      116.626    -453.224      27.412
  H      119.684    -453.573      27.700
  H      113.090    -451.522      33.049
  H      119.773    -451.204      26.938
  H      112.685    -450.572      31.637
  H      119.147    -452.325      25.698
  P      116.278    -455.091      25.623
  C      117.345    -455.711      23.315
  O      116.680    -456.154      24.490
  O      115.988    -453.744      24.810
  O      115.127    -455.507      26.484
  H      115.321    -453.197      25.272
  H      117.534    -456.548      22.675
  H      118.273    -455.250      23.583
  H      116.729    -455.002      22.802

 6  7  8  9  10  11  12  13  14  15  16  26  30  31  32  33  35 0
 6-311+G(2d,p)
 ****
 37  38 0
 6-311+G(2d,p)
 ****
 1  2  3  4  5  17  18  19  20  21  22  23  24  25 0
 3-21G
 ****
 27  28  29  34  36  39  40  41  42  43  44  45  46 0
 3-21G
 ****


