%nproc=1
%NoSave
%Mem=1900MB
#P OB98/GEN NMR

erre ene a

0 1
  C      915.209    -509.038     166.391
  O      915.394    -508.003     165.417
  P      914.132    -507.092     164.992
  C      914.890    -504.989     166.352
  O      913.895    -505.969     166.115
  C      914.584    -504.206     167.626
  O      914.551    -505.090     168.768
  C      915.610    -503.135     167.985
  O      915.473    -501.979     167.179
  C      915.306    -502.898     169.466
  O      914.198    -501.986     169.616
  C      914.912    -504.324     169.931
  N      915.968    -504.964     170.705
  C      915.908    -504.817     172.089
  O      915.052    -504.122     172.659
  N      916.878    -505.459     172.808
  C      917.934    -506.158     172.289
  O      918.789    -506.690     172.979
  C      917.986    -506.208     170.816
  C      917.027    -505.621     170.109
  O      912.893    -508.097     165.257
  O      914.129    -506.615     163.572
  H      914.046    -501.880     170.582
  H      912.160    -507.868     164.662
  H      916.831    -505.373     173.820
  H      918.823    -506.746     170.359
  H      917.065    -505.658     169.026
  H      914.003    -504.256     170.551
  H      916.152    -502.465     169.995
  H      916.627    -503.559     167.893
  H      913.581    -503.756     167.523
  H      914.922    -504.298     165.500
  H      915.861    -505.483     166.422
  P      916.453    -501.855     165.905
  C      914.475    -501.948     164.192
  O      915.653    -502.534     164.696
  O      917.594    -502.909     166.301
  O      916.944    -500.459     165.671
  H      917.232    -503.676     166.805
  H      914.504    -500.849     164.260
  H      913.613    -502.326     164.775
  H      914.344    -502.240     163.148
  H      916.138    -509.542     166.556
  H      914.482    -509.737     166.034
  H      914.869    -508.607     167.309

 3  4  5  6  7  8  9  10  11  12  13  23  28  29  30  31  32 0
 6-311+G(2d,p)
 ****
 33  34 0
 6-311+G(2d,p)
 ****
 1  2  14  15  16  17  18  19  20  21  22  24  25  26 0
 3-21G
 ****
 27  35  36  37  38  39  40  41  42  43  44  45 0
 3-21G
 ****


