%nproc=1
%NoSave
%Mem=1900MB
#P OB98/GEN NMR

erre ene a

0 1
  C     -165.829     -22.109    -192.014
  O     -164.678     -21.677    -191.276
  P     -163.754     -20.540    -191.917
  C     -161.615     -21.114    -190.554
  O     -162.621     -20.157    -190.850
  C     -160.991     -20.823    -189.187
  O     -161.902     -21.128    -188.107
  C     -159.728     -21.627    -188.906
  O     -158.582     -21.028    -189.497
  C     -159.646     -21.524    -187.392
  O     -159.081     -20.252    -187.018
  C     -161.120     -21.599    -186.980
  N     -160.689     -25.280    -183.537
  C     -160.119     -24.022    -183.572
  N     -159.324     -23.694    -182.530
  N     -160.312     -23.164    -184.541
  C     -161.145     -23.620    -185.502
  C     -161.767     -24.845    -185.581
  C     -161.534     -25.792    -184.515
  O     -161.999     -26.925    -184.439
  N     -162.529     -24.946    -186.716
  C     -162.386     -23.778    -187.313
  N     -161.542     -22.945    -186.623
  O     -164.708     -19.252    -191.895
  O     -163.272     -20.845    -193.298
  H     -158.868     -20.308    -186.067
  H     -164.459     -18.643    -192.616
  H     -160.500     -25.904    -182.773
  H     -162.871     -23.490    -188.238
  H     -161.350     -20.951    -186.125
  H     -159.002     -22.293    -186.956
  H     -159.172     -24.287    -181.730
  H     -159.850     -22.674    -189.208
  H     -158.925     -22.762    -182.521
  H     -160.750     -19.751    -189.144
  H     -160.840     -21.104    -191.326
  H     -162.055     -22.114    -190.590
  P     -157.699     -21.924    -190.492
  C     -155.251     -21.599    -189.691
  O     -156.272     -21.208    -190.586
  O     -158.372     -21.641    -191.915
  O     -157.678     -23.380    -190.168
  H     -158.292     -22.428    -192.484
  H     -154.315     -21.129    -190.000
  H     -155.120     -22.685    -189.700
  H     -155.492     -21.266    -188.678
  H     -166.343     -22.867    -191.461
  H     -165.519     -22.504    -192.959
  H     -166.484     -21.278    -192.173

 3  4  5  6  7  8  9  10  11  12  23  26  30  31 0
 6-311+G(2d,p)
 ****
 33  35  36  37  38 0
 6-311+G(2d,p)
 ****
 1  2  13  14  15  16  17  18  19  20  21  22  24  25 0
 3-21G
 ****
 27  28  29  32  34  39  40  41  42  43  44  45  46  47  48  49 0
 3-21G
 ****


