%nproc=1
%NoSave
%Mem=1900MB
#P OB98/GEN NMR

erre ene a

0 1
  C      294.494    -892.560     354.965
  O      293.439    -893.040     354.163
  P      293.383    -894.590     353.754
  C      291.068    -894.920     354.849
  O      292.434    -895.340     354.823
  C      290.157    -896.100     354.495
  O      290.137    -897.070     355.569
  C      288.703    -895.700     354.290
  O      288.521    -895.090     353.032
  C      288.003    -897.050     354.454
  O      288.068    -897.810     353.230
  C      288.852    -897.720     355.548
  N      284.955    -899.320     358.405
  C      285.196    -899.450     357.076
  N      286.249    -898.950     356.388
  C      287.073    -898.250     357.196
  C      286.922    -898.030     358.557
  C      285.816    -898.620     359.181
  N      285.563    -898.560     360.534
  N      287.954    -897.240     359.035
  C      288.705    -897.010     357.972
  N      288.243    -897.650     356.867
  O      294.705    -895.250     353.530
  O      292.504    -894.620     352.421
  H      287.646    -898.690     353.423
  H      293.034    -894.980     351.680
  H      284.476    -900.000     356.509
  H      289.614    -896.370     357.971
  H      289.043    -898.770     355.324
  H      286.951    -896.940     354.711
  H      288.371    -895.030     355.096
  H      290.557    -896.590     353.600
  H      290.942    -894.120     354.106
  H      284.822    -899.140     360.889
  H      286.337    -898.300     361.148
  H      290.819    -894.520     355.839
  P      287.893    -893.630     352.926
  C      290.094    -892.360     352.554
  O      289.016    -892.590     353.444
  O      286.547    -893.450     353.549
  O      287.845    -893.340     351.356
  H      287.063    -892.760     351.155
  H      290.789    -893.200     352.591
  H      290.605    -891.450     352.861
  H      289.731    -892.230     351.531
  H      294.365    -891.511     355.133
  H      295.426    -892.730     354.467
  H      294.492    -893.075     355.903

 3  4  5  6  7  8  9  10  11  12  22  25  29  30  31  32 0
 6-311+G(2d,p)
 ****
 33  36  37 0
 6-311+G(2d,p)
 ****
 1  2  13  14  15  16  17  18  19  20  21  23  24  26 0
 3-21G
 ****
 27  28  34  35  38  39  40  41  42  43  44  45  46  47  48 0
 3-21G
 ****


