%nproc=1
%NoSave
%Mem=1900MB
#P OB98/GEN NMR

erre ene a

0 1
  C       -9.059     146.326     313.521
  O       -7.984     145.883     312.717
  H       -9.329     147.340     313.216
  H       -8.764     146.342     314.574
  H       -9.925     145.673     313.385
  P       -7.389     144.427     313.041
  C       -5.831     145.528     314.809
  O       -6.774     144.502     314.522
  C       -4.896     145.066     315.922
  O       -5.670     144.602     317.053
  C       -3.998     143.900     315.535
  O       -2.892     144.309     314.752
  C       -3.591     143.384     316.907
  O       -2.483     144.123     317.442
  C       -4.870     143.622     317.746
  N       -5.606     142.384     317.986
  C       -5.326     141.740     319.191
  O       -4.509     142.165     320.008
  N       -5.989     140.560     319.403
  C       -6.853     139.958     318.534
  O       -7.355     138.863     318.757
  C       -7.121     140.694     317.289
  C       -6.491     141.851     317.070
  O       -6.099     144.345     312.096
  O       -8.332     143.294     312.810
  H       -6.294     143.792     311.316
  H       -2.277     143.719     318.308
  H       -5.790     140.073     320.263
  H       -7.809     140.244     316.578
  H       -6.656     142.399     316.146
  H       -4.610     144.056     318.719
  H       -3.285     142.337     316.867
  H       -4.581     143.125     315.023
  H       -4.293     145.926     316.250
  H       -6.360     146.430     315.137
  H       -5.268     145.760     313.897
  P       -2.352     143.323     313.606
  C       -0.821     142.218     315.436
  O       -1.724     142.052     314.358
  O       -1.084     144.130     313.072
  O       -3.375     142.997     312.569
  H       -0.613     144.610     313.777
  H       -0.518     141.258     315.799
  H       -1.301     142.762     316.223
  H        0.039     142.760     315.101

 6  7  8  9  10  11  12  13  14  15  16  27  31  32  33  34  35 0
 6-311+G(2d,p)
 ****
 36  37 0
 6-311+G(2d,p)
 ****
 1  2  3  4  5  17  18  19  20  21  22  23  24  25 0
 3-21G
 ****
 26  28  29  30  38  39  40  41  42  43  44  45 0
 3-21G
 ****


