%nproc=1
%NoSave
%Mem=1900MB
#P OB98/GEN NMR

erre ene a

0 1
  C     -723.045    -110.521     196.800
  O     -723.311    -111.387     197.883
  P     -723.113    -110.902     199.394
  C     -720.908    -112.251     199.868
  O     -721.555    -111.008     199.752
  C     -719.444    -112.015     200.260
  O     -718.741    -111.357     199.194
  C     -719.332    -111.145     201.511
  O     -719.215    -111.954     202.677
  C     -718.097    -110.308     201.226
  O     -716.901    -111.053     201.537
  C     -718.216    -110.093     199.696
  N     -719.082    -109.009     199.212
  C     -718.605    -108.125     198.246
  O     -717.492    -108.203     197.732
  N     -719.459    -107.102     197.909
  C     -720.726    -106.927     198.385
  O     -721.374    -105.890     198.257
  C     -721.263    -108.035     199.181
  C     -720.424    -108.995     199.574
  O     -723.764    -112.084     200.249
  O     -723.702    -109.572     199.721
  H     -716.920    -111.861     200.995
  H     -724.670    -111.845     200.522
  H     -719.066    -106.381     197.308
  H     -722.300    -108.001     199.471
  H     -720.794    -109.805     200.198
  H     -717.224    -109.949     199.248
  H     -718.069    -109.416     201.852
  H     -720.200    -110.473     201.585
  H     -718.959    -112.991     200.439
  H     -720.961    -112.800     198.922
  H     -721.407    -112.866     200.621
  P     -720.106    -111.614     203.960
  C     -718.130    -110.340     204.975
  O     -719.480    -110.269     204.572
  O     -720.294    -112.736     204.930
  O     -721.510    -111.145     203.323
  H     -722.142    -111.888     203.326
  H     -717.780    -109.337     205.207
  H     -717.516    -110.768     204.189
  H     -718.055    -110.953     205.885
  H     -723.238    -111.031     195.880
  H     -722.020    -110.216     196.831
  H     -723.676    -109.659     196.869

 3  4  5  6  7  8  9  10  11  12  13  23  28  29  30  31  32 0
 6-311+G(2d,p)
 ****
 33  34 0
 6-311+G(2d,p)
 ****
 1  2  14  15  16  17  18  19  20  21  22  24  25  26  27 0
 3-21G
 ****
 35  36  37  38  39  40  41  42  43  44  45 0
 3-21G
 ****


