%nproc=1
%NoSave
%Mem=1900MB
#P OB98/GEN NMR

erre ene a

0 1
  C     -213.466     205.580     155.885
  O     -214.582     206.166     156.536
  P     -214.328     206.906     157.938
  C     -216.052     205.442     159.281
  O     -214.705     205.836     159.069
  C     -216.180     204.700     160.615
  O     -215.516     203.421     160.531
  C     -215.540     205.411     161.802
  O     -216.341     206.485     162.270
  C     -215.380     204.259     162.786
  O     -216.626     203.997     163.455
  C     -215.025     203.088     161.848
  N     -213.594     202.788     161.816
  C     -212.974     202.617     163.051
  O     -213.573     202.705     164.122
  N     -211.628     202.357     163.012
  C     -210.852     202.318     161.892
  O     -209.641     202.124     161.917
  C     -211.554     202.540     160.620
  C     -212.873     202.760     160.640
  O     -215.539     207.950     157.943
  O     -212.970     207.509     158.044
  H     -216.294     207.631     157.419
  H     -216.765     204.735     164.080
  H     -211.161     202.207     163.894
  H     -210.969     202.524     159.709
  H     -213.405     202.935     159.713
  H     -215.559     202.181     162.152
  H     -214.630     204.463     163.558
  H     -214.550     205.791     161.518
  H     -217.247     204.518     160.806
  H     -216.365     204.786     158.466
  H     -216.687     206.335     159.279
  P     -215.657     207.487     163.328
  C     -217.233     206.905     165.334
  O     -215.937     206.863     164.777
  O     -216.641     208.747     163.241
  O     -214.227     207.791     163.022
  H     -217.578     208.493     163.207
  H     -217.303     206.149     166.117
  H     -217.997     206.705     164.578
  H     -217.408     207.890     165.775
  H     -213.785     205.127     154.970
  H     -213.033     204.835     156.520
  H     -212.738     206.336     155.675

 3  4  5  6  7  8  9  10  11  12  13  24  28  29  30  31  32 0
 6-311+G(2d,p)
 ****
 33  34 0
 6-311+G(2d,p)
 ****
 1  2  14  15  16  17  18  19  20  21  22  23  25  26  27 0
 3-21G
 ****
 35  36  37  38  39  40  41  42  43  44  45 0
 3-21G
 ****


