%nproc=1
%NoSave
%Mem=1900MB
#P OB98/GEN NMR

erre ene a

0 1
  C     -436.165      26.747     143.907
  O     -437.476      27.263     143.807
  H     -435.498      27.370     143.305
  H     -436.142      25.727     143.515
  H     -435.814      26.754     144.941
  P     -438.582      26.772     144.856
  C     -439.318      24.649     143.577
  O     -438.676      25.171     144.732
  C     -439.064      23.140     143.438
  O     -439.874      22.616     142.355
  C     -437.605      22.877     143.070
  O     -437.149      21.609     143.544
  C     -437.632      22.857     141.550
  O     -436.528      22.162     140.978
  C     -438.991      22.201     141.294
  N     -440.334      20.593     136.648
  C     -439.638      19.925     137.635
  N     -439.226      18.668     137.338
  N     -439.358      20.441     138.801
  C     -439.764      21.734     138.934
  C     -440.444      22.506     138.014
  C     -440.782      21.903     136.743
  O     -441.384      22.456     135.824
  N     -440.668      23.772     138.503
  C     -440.127      23.766     139.701
  N     -439.575      22.546     140.017
  O     -439.967      27.253     144.204
  O     -438.424      27.288     146.252
  H     -435.750      22.747     141.034
  H     -440.647      27.361     144.891
  H     -440.539      20.136     135.770
  H     -440.109      24.612     140.383
  H     -438.903      21.104     141.336
  H     -437.584      23.894     141.189
  H     -439.266      18.294     136.404
  H     -436.936      23.658     143.450
  H     -438.477      18.284     137.921
  H     -439.376      22.620     144.350
  H     -438.908      25.180     142.709
  H     -440.391      24.861     143.616
  P     -435.834      21.585     144.463
  C     -434.028      21.290     142.582
  O     -434.604      22.115     143.576
  O     -435.538      20.029     144.660
  O     -436.000      22.300     145.768
  H     -435.787      19.749     145.559
  H     -433.228      21.815     142.102
  H     -434.772      21.033     141.857
  H     -433.648      20.398     143.035

 6  7  8  9  10  11  12  13  14  15  26  29  33  34 0
 6-311+G(2d,p)
 ****
 36  38  39  40  41 0
 6-311+G(2d,p)
 ****
 1  2  3  4  5  16  17  18  19  20  21  22  23  24  25 0
 3-21G
 ****
 27  28  30  31  32  35  37  42  43  44  45  46  47 0
 3-21G
 ****
 48  49 0
 3-21G
 ****


