%nproc=1
%NoSave
%Mem=1900MB
#P OB98/GEN NMR

erre ene a

0 1
  C       35.808     -31.735    -252.982
  O       35.560     -31.431    -251.628
  H       35.763     -32.819    -253.114
  H       36.807     -31.392    -253.266
  H       35.058     -31.269    -253.627
  P       35.422     -29.882    -251.231
  C       37.972     -29.410    -251.352
  O       36.809     -29.459    -250.540
  C       39.199     -29.070    -250.506
  O       39.050     -27.721    -249.989
  C       39.404     -30.009    -249.315
  O       40.807     -30.238    -249.151
  C       38.881     -29.213    -248.135
  O       39.463     -29.618    -246.896
  C       39.207     -27.776    -248.559
  N       38.348     -26.809    -247.881
  C       38.952     -26.006    -246.909
  O       40.150     -26.137    -246.654
  N       38.178     -25.116    -246.211
  C       36.896     -25.091    -246.403
  N       36.177     -24.208    -245.658
  C       36.206     -25.968    -247.369
  C       36.986     -26.787    -248.072
  O       34.396     -29.904    -250.006
  O       34.977     -28.978    -252.331
  H       38.955     -29.200    -246.166
  H       33.853     -29.092    -249.984
  H       35.132     -25.928    -247.475
  H       36.569     -27.474    -248.799
  H       40.255     -27.535    -248.332
  H       37.795     -29.348    -248.055
  H       38.891     -30.968    -249.428
  H       40.080     -29.066    -251.158
  H       36.685     -23.636    -244.993
  H       37.841     -28.636    -252.115
  H       35.172     -24.134    -245.692
  H       38.109     -30.376    -251.850
  P       41.332     -31.727    -249.430
  C       41.429     -32.080    -246.857
  O       42.080     -32.248    -248.110
  O       42.519     -31.510    -250.480
  O       40.281     -32.642    -249.965
  H       42.246     -31.825    -251.361
  H       42.048     -32.474    -246.078
  H       40.494     -32.601    -246.868
  H       41.255     -31.039    -246.682

 6  7  8  9  10  11  12  13  14  15  16  26  30  31  32  33  35 0
 6-311+G(2d,p)
 ****
 37  38 0
 6-311+G(2d,p)
 ****
 1  2  3  4  5  17  18  19  20  21  22  23  24  25 0
 3-21G
 ****
 27  28  29  34  36  39  40  41  42  43  44  45  46 0
 3-21G
 ****


