%nproc=1
%NoSave
%Mem=1900MB
#P OB98/GEN NMR

erre ene a

0 1
  C       31.980    -114.378    -137.167
  O       30.609    -114.370    -136.807
  P       29.546    -114.158    -137.994
  C       27.941    -112.946    -136.329
  O       28.636    -112.910    -137.564
  C       27.932    -111.549    -135.702
  O       29.281    -111.078    -135.516
  C       27.223    -110.493    -136.540
  O       25.822    -110.561    -136.342
  C       27.857    -109.211    -136.010
  O       27.238    -108.802    -134.775
  C       29.312    -109.647    -135.779
  N       33.710    -107.539    -137.110
  C       33.027    -107.492    -135.907
  N       33.631    -106.821    -134.902
  N       31.865    -108.052    -135.708
  C       31.376    -108.675    -136.806
  C       31.948    -108.776    -138.053
  C       33.258    -108.197    -138.245
  O       33.943    -108.296    -139.259
  N       31.141    -109.468    -138.921
  C       30.100    -109.809    -138.187
  N       30.202    -109.373    -136.892
  O       28.579    -115.418    -137.844
  O       30.138    -114.043    -139.365
  H       27.917    -108.436    -134.182
  H       28.823    -116.120    -138.479
  H       34.609    -107.102    -137.201
  H       29.260    -110.389    -138.541
  H       29.749    -109.168    -134.895
  H       27.744    -108.376    -136.707
  H       34.516    -106.344    -134.988
  H       27.470    -110.615    -137.601
  H       33.147    -106.774    -134.013
  H       27.468    -111.630    -134.711
  H       28.444    -113.642    -135.652
  H       26.919    -113.297    -136.503
  P       24.913    -110.939    -137.610
  C       24.026    -108.498    -137.646
  O       24.587    -109.575    -138.379
  O       23.517    -111.354    -136.949
  O       25.463    -112.037    -138.459
  H       23.118    -112.082    -137.464
  H       24.340    -107.560    -138.106
  H       24.347    -108.509    -136.602
  H       22.936    -108.565    -137.688
  H       32.578    -114.526    -136.292
  H       32.236    -113.442    -137.619
  H       32.162    -115.171    -137.862

 3  4  5  6  7  8  9  10  11  12  23  26  30  31 0
 6-311+G(2d,p)
 ****
 33  35  36  37  38 0
 6-311+G(2d,p)
 ****
 1  2  13  14  15  16  17  18  19  20  21  22  24  25 0
 3-21G
 ****
 27  28  29  32  34  39  40  41  42  43  44  45  46  47  48  49 0
 3-21G
 ****


