%nproc=1
%NoSave
%Mem=1900MB
#P OB98/GEN NMR

erre ene a

0 1
  C      423.381    -109.585     286.641
  O      423.592    -109.721     285.250
  H      424.163    -108.940     287.053
  H      423.443    -110.566     287.121
  H      422.407    -109.130     286.840
  P      422.440    -110.464     284.414
  C      423.670    -112.704     284.871
  O      422.440    -111.995     284.896
  C      423.472    -114.126     285.396
  O      423.237    -114.105     286.822
  C      422.287    -114.863     284.779
  O      422.613    -115.436     283.521
  C      422.048    -115.936     285.828
  O      423.035    -116.983     285.685
  C      422.281    -115.164     287.130
  N      419.348    -114.787     291.248
  C      420.505    -115.513     291.049
  N      420.942    -116.255     292.089
  N      421.178    -115.519     289.926
  C      420.619    -114.739     288.968
  C      419.478    -113.975     289.045
  C      418.746    -113.970     290.297
  O      417.732    -113.328     290.536
  N      419.236    -113.313     287.870
  C      420.209    -113.691     287.074
  N      421.080    -114.568     287.688
  O      423.048    -110.546     282.932
  O      421.108    -109.785     284.416
  H      422.912    -117.588     286.442
  H      422.321    -110.434     282.289
  H      418.865    -114.828     292.130
  H      420.341    -113.367     286.053
  H      422.721    -115.786     287.917
  H      421.069    -116.408     285.735
  H      420.447    -116.338     292.966
  H      421.400    -114.216     284.712
  H      421.809    -116.774     291.978
  H      424.402    -114.682     285.224
  H      424.398    -112.184     285.500
  H      424.043    -112.730     283.839
  P      421.438    -115.571     282.431
  C      420.940    -118.033     283.096
  O      420.447    -116.695     283.003
  O      422.163    -116.300     281.202
  O      420.807    -114.279     282.025
  H      421.681    -116.113     280.377
  H      420.175    -118.668     283.491
  H      421.792    -118.055     283.743
  H      421.222    -118.378     282.123

 6  7  8  9  10  11  12  13  14  15  26  29  33  34 0
 6-311+G(2d,p)
 ****
 36  38  39  40  41 0
 6-311+G(2d,p)
 ****
 1  2  3  4  5  16  17  18  19  20  21  22  23  24  25 0
 3-21G
 ****
 27  28  30  31  32  35  37  42  43  44  45  46  47 0
 3-21G
 ****
 48  49 0
 3-21G
 ****


