%nproc=1
%NoSave
%Mem=1900MB
#P OB98/GEN NMR

erre ene a

0 1
  C      -24.790      35.826     282.957
  O      -23.734      35.030     283.459
  P      -22.391      34.824     282.608
  C      -23.352      33.554     280.574
  O      -22.861      34.802     281.071
  C      -23.007      33.390     279.094
  O      -23.429      34.547     278.344
  C      -21.520      33.232     278.815
  O      -21.087      31.924     279.126
  C      -21.462      33.586     277.331
  O      -21.811      32.457     276.515
  C      -22.530      34.691     277.222
  N      -21.947      36.028     277.160
  C      -21.378      36.392     275.933
  O      -21.364      35.593     274.993
  N      -20.801      37.637     275.822
  C      -20.774      38.426     276.842
  N      -20.179      39.639     276.672
  C      -21.334      38.069     278.163
  C      -21.898      36.866     278.251
  O      -21.535      33.679     283.034
  O      -21.662      36.247     282.732
  H      -21.161      31.757     276.733
  H      -21.264      36.372     283.630
  H      -21.278      38.762     278.992
  H      -22.336      36.521     279.179
  H      -23.140      34.547     276.319
  H      -20.460      33.905     277.022
  H      -20.952      33.978     279.389
  H      -23.559      32.520     278.714
  H      -19.782      39.830     275.760
  H      -24.438      33.537     280.696
  H      -20.069      40.319     277.411
  H      -22.926      32.741     281.165
  P      -19.575      31.667     279.583
  C      -19.330      30.293     277.428
  O      -18.737      31.254     278.275
  O      -19.403      30.766     280.763
  O      -19.030      33.140     279.912
  H      -18.524      33.112     280.745
  H      -18.843      30.346     276.443
  H      -20.397      30.482     277.307
  H      -19.175      29.297     277.844
  H      -25.593      35.841     283.665
  H      -25.138      35.415     282.032
  H      -24.439      36.824     282.795

 3  4  5  6  7  8  9  10  11  12  13  23  27  28  29  30  32 0
 6-311+G(2d,p)
 ****
 34  35 0
 6-311+G(2d,p)
 ****
 1  2  14  15  16  17  18  19  20  21  22  24  25  26 0
 3-21G
 ****
 31  33  36  37  38  39  40  41  42  43  44  45  46 0
 3-21G
 ****


