%nproc=1
%NoSave
%Mem=1900MB
#P OB98/GEN NMR

erre ene a

0 1
  C      867.988    -378.992     849.980
  O      868.762    -379.728     849.058
  H      868.627    -378.662     850.803
  H      867.193    -379.622     850.389
  H      867.550    -378.109     849.503
  P      868.077    -380.105     847.659
  C      867.460    -382.558     848.248
  O      866.992    -381.249     847.977
  C      866.299    -383.445     848.706
  O      865.824    -382.961     849.995
  C      865.089    -383.437     847.747
  O      864.519    -384.743     847.742
  C      864.127    -382.465     848.412
  O      862.772    -382.658     848.045
  C      864.398    -382.768     849.896
  N      863.954    -381.692     850.778
  C      862.740    -381.865     851.430
  O      862.049    -382.892     851.380
  N      862.297    -380.792     852.168
  C      862.935    -379.589     852.289
  O      862.488    -378.661     852.946
  C      864.213    -379.459     851.567
  C      864.652    -380.503     850.850
  O      869.241    -380.899     846.895
  O      867.554    -378.956     846.866
  H      869.791    -380.283     846.375
  H      862.270    -381.882     848.364
  H      861.423    -380.904     852.646
  H      864.737    -378.517     851.629
  H      865.583    -380.438     850.295
  H      863.914    -383.711     850.189
  H      864.408    -381.433     848.173
  H      865.345    -383.128     846.724
  H      866.668    -384.467     848.857
  H      868.214    -382.522     849.052
  H      867.925    -382.978     847.349
  P      864.598    -385.577     846.371
  C      862.021    -386.020     846.136
  O      863.184    -385.361     845.642
  O      864.539    -387.087     846.918
  O      865.812    -385.249     845.558
  H      863.969    -387.178     847.699
  H      861.179    -385.760     845.530
  H      861.841    -385.716     847.146
  H      862.170    -387.079     846.103

 6  7  8  9  10  11  12  13  14  15  16  27  31  32  33  34  35 0
 6-311+G(2d,p)
 ****
 36  37 0
 6-311+G(2d,p)
 ****
 1  2  3  4  5  17  18  19  20  21  22  23  24  25 0
 3-21G
 ****
 26  28  29  30  38  39  40  41  42  43  44  45 0
 3-21G
 ****


