%nproc=1
%NoSave
%Mem=1900MB
#P OB98/GEN NMR

erre ene a

0 1
  C       87.083       6.261     -31.814
  O       86.288       7.065     -32.667
  P       86.899       7.455     -34.101
  C       87.450       6.065     -36.225
  O       87.305       6.073     -34.810
  C       88.554       5.103     -36.666
  O       89.838       5.661     -36.297
  C       88.448       3.707     -36.050
  O       88.856       2.761     -37.038
  C       89.479       3.733     -34.938
  O       89.934       2.422     -34.609
  C       90.548       4.658     -35.541
  N       91.397       5.261     -34.519
  C       92.661       4.693     -34.333
  O       92.981       3.683     -34.961
  N       93.507       5.250     -33.408
  C       93.087       6.220     -32.657
  N       93.964       6.741     -31.758
  C       91.719       6.767     -32.737
  C       90.943       6.260     -33.693
  O       88.310       8.104     -33.723
  O       86.048       8.377     -34.910
  H       90.441       2.075     -35.376
  H       88.555       8.801     -34.361
  H       91.408       7.551     -32.062
  H       89.932       6.615     -33.841
  H       91.186       4.104     -36.242
  H       89.045       4.185     -34.037
  H       87.438       3.470     -35.705
  H       88.532       5.036     -37.761
  H       94.892       6.339     -31.712
  H       87.720       7.070     -36.561
  H       93.725       7.497     -31.131
  H       86.495       5.796     -36.686
  P       88.286       1.267     -36.918
  C       85.927       0.258     -36.878
  O       86.698       1.439     -36.785
  O       88.694       0.890     -35.412
  O       88.779       0.240     -37.882
  H       88.454      -0.035     -35.229
  H       84.888       0.499     -36.636
  H       86.289      -0.493     -36.172
  H       85.967      -0.134     -37.899
  H       86.556       6.081     -30.900
  H       88.002       6.766     -31.602
  H       87.292       5.328     -32.295

 3  4  5  6  7  8  9  10  11  12  13  21  23  27  28  29  30  32 0
 6-311+G(2d,p)
 ****
 34  35 0
 6-311+G(2d,p)
 ****
 1  2  14  15  16  17  18  19  20  22  24  25  26 0
 3-21G
 ****
 31  33  36  37  38  39  40  41  42  43  44  45  46 0
 3-21G
 ****


