%nproc=1
%NoSave
%Mem=1900MB
#P OB98/GEN NMR

erre ene a

0 1
  C     -223.119     157.415     -67.379
  O     -222.550     157.664     -68.651
  H     -222.319     157.399     -66.635
  H     -223.622     156.445     -67.377
  H     -223.826     158.207     -67.122
  P     -223.571     157.751     -69.886
  C     -224.640     155.950     -71.409
  O     -223.932     156.221     -70.206
  C     -224.076     154.707     -72.091
  O     -222.758     154.964     -72.608
  C     -223.932     153.498     -71.174
  O     -225.174     152.831     -71.017
  C     -222.937     152.661     -71.963
  O     -223.622     151.962     -73.022
  C     -222.001     153.726     -72.560
  N     -216.883     153.980     -72.860
  C     -217.814     153.569     -73.745
  N     -219.152     153.489     -73.584
  C     -219.508     153.888     -72.352
  C     -218.670     154.335     -71.342
  C     -217.297     154.384     -71.636
  N     -216.351     154.814     -70.732
  N     -219.393     154.660     -70.214
  C     -220.650     154.463     -70.556
  N     -220.770     153.963     -71.828
  O     -223.123     158.581     -71.038
  O     -224.896     158.268     -69.150
  H     -222.988     151.338     -73.419
  H     -224.988     157.846     -68.277
  H     -217.435     153.265     -74.718
  H     -221.507     154.683     -69.929
  H     -221.708     153.480     -73.587
  H     -222.450     151.903     -71.345
  H     -223.485     153.775     -70.214
  H     -224.721     154.473     -72.948
  H     -224.579     156.806     -72.087
  H     -215.382     154.656     -70.962
  H     -216.646     154.995     -69.784
  H     -225.689     155.792     -71.144
  P     -225.538     152.096     -69.640
  C     -226.128     149.657     -69.079
  O     -225.351     150.522     -69.899
  O     -226.851     152.475     -69.051
  O     -224.323     152.448     -68.664
  H     -224.651     152.599     -67.756
  H     -225.923     148.640     -69.339
  H     -227.167     149.861     -69.230
  H     -225.878     149.820     -68.051

 6  7  8  9  10  11  12  13  14  15  25  28  32  33  34  35 0
 6-311+G(2d,p)
 ****
 36  39  40 0
 6-311+G(2d,p)
 ****
 1  2  3  4  5  16  17  18  19  20  21  22  23  24 0
 3-21G
 ****
 26  27  29  30  31  37  38  41  42  43  44  45  46  47 0
 3-21G
 ****
 48 0
 3-21G
 ****


