%nproc=1
%NoSave
%Mem=1900MB
#P OB98/GEN NMR

erre ene a

0 1
  C       39.309    -399.444     238.361
  O       39.445    -399.824     236.997
  P       38.129    -399.768     236.083
  C       37.338    -402.106     236.913
  O       37.694    -401.289     235.807
  C       35.893    -402.574     236.772
  O       35.004    -401.440     236.714
  C       35.610    -403.383     235.510
  O       36.101    -404.710     235.627
  C       34.083    -403.279     235.450
  O       33.486    -404.204     236.369
  C       33.846    -401.826     235.925
  N       30.540    -399.888     232.521
  C       30.401    -400.840     233.475
  N       31.336    -401.315     234.331
  C       32.514    -400.704     234.144
  C       32.814    -399.729     233.199
  C       31.763    -399.314     232.357
  N       31.910    -398.344     231.395
  N       34.139    -399.351     233.277
  C       34.627    -400.079     234.264
  N       33.689    -400.895     234.824
  O       38.694    -399.283     234.662
  O       37.047    -398.875     236.589
  H       33.628    -405.102     236.004
  H       38.042    -398.716     234.211
  H       29.413    -401.278     233.564
  H       35.657    -400.044     234.608
  H       32.962    -401.730     236.567
  H       33.679    -403.489     234.457
  H       36.048    -402.892     234.631
  H       35.635    -403.165     237.666
  H       37.431    -401.534     237.840
  H       31.147    -398.221     230.744
  H       32.844    -398.023     231.177
  H       38.026    -402.959     236.962
  P       37.205    -405.168     234.546
  C       35.466    -405.200     232.656
  O       36.354    -405.973     233.447
  O       37.951    -406.344     235.337
  O       38.076    -404.074     234.030
  H       37.326    -406.970     235.725
  H       34.987    -405.851     231.925
  H       35.994    -404.402     232.139
  H       34.679    -404.758     233.295
  H       40.257    -399.528     238.851
  H       38.601    -400.087     238.841
  H       38.967    -398.432     238.417

 3  4  5  6  7  8  9  10  11  12  22  25  29  30  31  32 0
 6-311+G(2d,p)
 ****
 33  36  37 0
 6-311+G(2d,p)
 ****
 1  2  13  14  15  16  17  18  19  20  21  23  24  26 0
 3-21G
 ****
 27  28  34  35  38  39  40  41  42  43  44  45  46  47  48 0
 3-21G
 ****


