%nproc=1
%NoSave
%Mem=1900MB
#P OB98/GEN NMR

erre ene a

0 1
  C      458.927     -66.450     -14.219
  O      459.217     -67.693     -14.826
  P      460.127     -67.758     -16.142
  C      462.117     -68.781     -14.876
  O      461.665     -67.704     -15.694
  C      462.915     -69.782     -15.706
  O      464.038     -69.136     -16.350
  C      463.526     -70.912     -14.895
  O      462.552     -71.850     -14.473
  C      464.558     -71.456     -15.874
  O      463.942     -72.322     -16.837
  C      465.046     -70.157     -16.554
  N      466.346     -69.727     -16.066
  C      467.458     -70.352     -16.641
  O      467.310     -71.269     -17.450
  N      468.712     -69.929     -16.273
  C      468.841     -69.052     -15.330
  N      470.102     -68.624     -15.049
  C      467.698     -68.489     -14.584
  C      466.492     -68.847     -15.015
  O      459.757     -66.791     -17.220
  O      459.961     -69.267     -16.655
  H      459.735     -69.253     -17.606
  H      464.507     -72.304     -17.632
  H      467.864     -67.811     -13.759
  H      465.590     -68.467     -14.544
  H      465.110     -70.301     -17.642
  H      465.346     -72.030     -15.379
  H      464.038     -70.501     -14.016
  H      462.255     -70.184     -16.488
  H      470.861     -69.021     -15.590
  H      461.244     -69.278     -14.441
  H      470.289     -67.736     -14.582
  H      462.728     -68.382     -14.060
  P      462.628     -72.345     -12.950
  C      460.342     -71.370     -12.228
  O      461.744     -71.339     -12.074
  O      464.133     -71.999     -12.525
  O      462.329     -73.795     -12.750
  H      464.474     -72.687     -11.928
  H      459.880     -70.908     -11.351
  H      459.971     -72.397     -12.322
  H      460.058     -70.799     -13.116
  H      458.311     -66.608     -13.359
  H      458.411     -65.824     -14.917
  H      459.839     -65.977     -13.922

 3  4  5  6  7  8  9  10  11  12  13  24  27  28  29  30  32 0
 6-311+G(2d,p)
 ****
 34  35 0
 6-311+G(2d,p)
 ****
 1  2  14  15  16  17  18  19  20  21  22  23  25  26 0
 3-21G
 ****
 31  33  36  37  38  39  40  41  42  43  44  45  46 0
 3-21G
 ****


