%nproc=1
%NoSave
%Mem=1900MB
#P OB98/GEN NMR

erre ene a

0 1
  C      -23.073       2.124      53.184
  O      -24.290       1.870      52.503
  P      -24.427       0.634      51.500
  C      -26.450      -0.345      50.142
  O      -25.978       0.325      51.291
  C      -27.762       0.308      49.690
  O      -28.813       0.018      50.635
  C      -27.627       1.825      49.585
  O      -27.314       2.208      48.255
  C      -28.986       2.311      50.050
  O      -29.942       2.235      48.977
  C      -29.329       1.276      51.148
  N      -28.770       1.483      52.497
  C      -29.198       0.680      53.550
  O      -30.009      -0.232      53.427
  N      -28.670       0.983      54.781
  C      -27.748       1.955      55.036
  O      -27.471       2.372      56.154
  C      -27.140       2.575      53.855
  C      -27.685       2.333      52.662
  O      -23.919      -0.602      52.379
  O      -23.670       0.759      50.219
  H      -29.718       2.940      48.342
  H      -22.990      -0.814      52.170
  H      -29.082       0.497      55.571
  H      -26.307       3.249      54.000
  H      -27.276       2.812      51.776
  H      -30.413       1.169      51.260
  H      -28.949       3.357      50.350
  H      -26.866       2.188      50.287
  H      -28.053      -0.117      48.721
  H      -26.607      -1.406      50.364
  H      -25.704      -0.290      49.342
  P      -27.583       3.713      47.782
  C      -26.460       5.282      46.095
  O      -26.337       4.090      46.847
  O      -27.885       4.687      48.872
  O      -28.810       3.562      46.763
  H      -29.650       3.770      47.221
  H      -25.492       5.517      45.648
  H      -26.768       6.111      46.738
  H      -27.193       5.139      45.296
  H      -23.185       2.989      53.803
  H      -22.294       2.294      52.471
  H      -22.822       1.280      53.792

 3  4  5  6  7  8  9  10  11  12  13  23  28  29  30  31  32 0
 6-311+G(2d,p)
 ****
 33  34 0
 6-311+G(2d,p)
 ****
 1  2  14  15  16  17  18  19  20  21  22  24  25  26  27 0
 3-21G
 ****
 35  36  37  38  39  40  41  42  43  44  45 0
 3-21G
 ****


