%nproc=1
%NoSave
%Mem=1900MB
#P OB98/GEN NMR

erre ene a

0 1
  C     -354.393     335.633     -46.757
  O     -354.690     337.015     -46.777
  H     -353.557     335.465     -46.073
  H     -354.102     335.300     -47.757
  H     -355.258     335.062     -46.408
  P     -356.011     337.457     -47.581
  C     -356.429     339.515     -46.008
  O     -356.168     339.029     -47.313
  C     -355.126     339.666     -45.222
  O     -354.284     340.630     -45.899
  C     -355.325     340.147     -43.785
  O     -354.371     339.490     -42.949
  C     -355.013     341.630     -43.859
  O     -354.617     342.156     -42.594
  C     -353.940     341.665     -44.956
  N     -353.853     342.971     -45.608
  C     -352.739     343.756     -45.295
  O     -351.901     343.350     -44.489
  N     -352.622     344.999     -45.865
  C     -353.571     345.449     -46.625
  N     -353.405     346.697     -47.144
  C     -354.788     344.677     -46.941
  C     -354.857     343.455     -46.412
  O     -357.166     336.798     -46.690
  O     -356.020     337.043     -49.014
  H     -353.721     341.806     -42.389
  H     -357.017     336.886     -45.734
  H     -355.558     345.103     -47.569
  H     -355.714     342.818     -46.598
  H     -352.954     341.421     -44.537
  H     -355.905     342.182     -44.186
  H     -356.328     339.968     -43.401
  H     -354.594     338.708     -45.250
  H     -352.565     347.200     -46.889
  H     -357.099     338.833     -45.477
  H     -354.101     347.165     -47.704
  H     -356.930     340.483     -46.102
  P     -354.788     338.144     -42.189
  C     -352.416     337.227     -41.759
  O     -353.612     337.728     -41.178
  O     -355.298     337.039     -43.054
  O     -355.939     338.647     -41.184
  H     -356.628     337.954     -41.147
  H     -351.717     336.988     -40.985
  H     -351.994     337.970     -42.404
  H     -352.636     336.346     -42.325

 6  7  8  9  10  11  12  13  14  15  16  26  30  31  32  33  35 0
 6-311+G(2d,p)
 ****
 37  38 0
 6-311+G(2d,p)
 ****
 1  2  3  4  5  17  18  19  20  21  22  23  24  25 0
 3-21G
 ****
 27  28  29  34  36  39  40  41  42  43  44  45  46 0
 3-21G
 ****


