%nproc=1
%NoSave
%Mem=1900MB
#P OB98/GEN NMR

erre ene a

0 1
  C      149.029    -243.428     354.959
  O      150.153    -244.205     354.607
  P      151.613    -243.816     355.143
  C      151.298    -244.907     357.451
  O      151.486    -243.690     356.739
  C      152.509    -245.188     358.339
  O      153.703    -245.397     357.542
  C      152.877    -244.041     359.268
  O      151.960    -243.712     360.290
  C      154.277    -244.442     359.696
  O      154.245    -245.413     360.742
  C      154.831    -245.071     358.392
  N      155.780    -244.185     357.720
  C      157.029    -244.067     358.316
  O      157.352    -244.657     359.346
  N      157.906    -243.213     357.702
  C      157.644    -242.449     356.601
  O      158.463    -241.669     356.131
  C      156.300    -242.605     356.025
  C      155.439    -243.452     356.600
  O      152.242    -242.636     354.476
  O      152.438    -245.176     354.975
  H      153.623    -246.116     360.472
  H      152.086    -245.933     355.475
  H      158.814    -243.104     358.126
  H      156.063    -242.020     355.146
  H      154.443    -243.582     356.195
  H      155.344    -246.018     358.612
  H      154.850    -243.586     360.068
  H      152.977    -243.129     358.663
  H      152.325    -246.113     358.890
  H      151.187    -245.727     356.732
  H      150.378    -244.848     358.040
  P      151.956    -242.308     361.056
  C      150.127    -240.991     359.774
  O      151.504    -241.169     360.020
  O      153.135    -242.014     361.929
  O      150.651    -242.448     361.983
  H      150.789    -241.942     362.801
  H      150.006    -240.212     359.018
  H      149.614    -240.671     360.688
  H      149.681    -241.914     359.400
  H      148.152    -243.844     354.508
  H      149.166    -242.425     354.613
  H      148.916    -243.426     356.023

 3  4  5  6  7  8  9  10  11  12  13  23  28  29  30  31  32 0
 6-311+G(2d,p)
 ****
 33  34 0
 6-311+G(2d,p)
 ****
 1  2  14  15  16  17  18  19  20  21  22  24  25  26  27 0
 3-21G
 ****
 35  36  37  38  39  40  41  42  43  44  45 0
 3-21G
 ****


