%nproc=1
%NoSave
%Mem=1900MB
#P OB98/GEN NMR

erre ene a

0 1
  C       16.476     758.306    -706.144
  O       17.315     757.205    -705.834
  P       17.791     756.198    -706.986
  C       20.336     756.489    -706.806
  O       19.237     755.628    -706.551
  C       21.667     755.791    -706.547
  O       21.725     755.335    -705.167
  C       21.916     754.537    -707.436
  O       23.330     754.491    -707.699
  C       21.516     753.391    -706.531
  O       22.084     752.143    -706.927
  C       22.032     753.918    -705.184
  N       21.855     749.611    -702.390
  C       22.577     749.951    -703.498
  N       22.547     751.120    -704.194
  C       21.671     751.989    -703.649
  C       20.863     751.775    -702.541
  C       20.982     750.549    -701.887
  N       20.292     750.191    -700.733
  N       20.051     752.895    -702.323
  C       20.380     753.730    -703.284
  N       21.388     753.267    -704.062
  O       17.735     756.735    -708.375
  O       16.833     754.933    -706.812
  H       23.030     752.275    -707.090
  H       16.169     754.917    -707.538
  H       23.245     749.182    -703.855
  H       19.915     754.704    -703.451
  H       23.121     753.802    -705.077
  H       20.435     753.272    -706.529
  H       21.362     754.549    -708.376
  H       22.484     756.519    -706.675
  H       20.261     757.351    -706.119
  H       20.550     749.337    -700.271
  H       19.842     750.943    -700.205
  H       20.294     756.869    -707.833
  P       23.874     754.532    -709.207
  C       25.563     756.348    -708.616
  O       25.399     755.045    -709.120
  O       22.994     755.227    -710.191
  O       24.046     752.956    -709.567
  H       24.112     752.865    -710.543
  H       25.351     757.090    -709.403
  H       26.610     756.468    -708.275
  H       24.904     756.543    -707.777
  H       16.268     758.858    -705.251
  H       15.559     757.949    -706.564
  H       16.968     758.942    -706.850

 3  4  5  6  7  8  9  10  11  12  22  25  29  30  31  32 0
 6-311+G(2d,p)
 ****
 33  36  37 0
 6-311+G(2d,p)
 ****
 1  2  13  14  15  16  17  18  19  20  21  23  24  26 0
 3-21G
 ****
 27  28  34  35  38  39  40  41  42  43  44  45  46  47  48 0
 3-21G
 ****


