%nproc=1
%NoSave
%Mem=1900MB
#P OB98/GEN NMR

erre ene a

0 1
  C      231.615    -288.244     -29.134
  O      230.584    -287.284     -28.977
  H      231.397    -289.122     -28.520
  H      231.655    -288.548     -30.185
  H      232.583    -287.820     -28.851
  P      230.533    -286.477     -27.592
  C      227.943    -286.318     -27.502
  O      229.174    -285.619     -27.622
  C      226.782    -285.450     -27.997
  O      226.622    -284.323     -27.084
  C      226.979    -284.884     -29.413
  O      225.726    -284.903     -30.091
  C      227.372    -283.431     -29.153
  O      227.066    -282.572     -30.243
  C      226.581    -283.134     -27.884
  N      225.824    -279.921     -24.009
  C      225.245    -281.101     -24.326
  N      225.544    -281.920     -25.356
  C      226.596    -281.454     -26.047
  C      227.288    -280.271     -25.835
  C      226.846    -279.476     -24.768
  N      227.382    -278.235     -24.476
  N      228.269    -280.109     -26.811
  C      228.155    -281.165     -27.587
  N      227.158    -281.999     -27.173
  O      231.681    -285.373     -27.803
  O      230.758    -287.298     -26.365
  H      227.495    -282.916     -31.051
  H      232.540    -285.738     -27.516
  H      224.424    -281.421     -23.677
  H      228.743    -281.349     -28.479
  H      225.531    -282.891     -28.083
  H      228.457    -283.378     -28.964
  H      227.736    -285.414     -30.006
  H      225.861    -286.040     -27.945
  H      227.772    -286.570     -26.447
  H      226.927    -277.689     -23.758
  H      228.075    -277.844     -25.096
  H      227.997    -287.246     -28.080
  P      225.744    -285.185     -31.671
  C      224.178    -283.357     -32.680
  O      224.339    -284.722     -32.292
  O      225.678    -286.787     -31.761
  O      226.956    -284.647     -32.369
  H      226.174    -287.104     -32.535
  H      223.193    -283.211     -33.072
  H      224.900    -283.112     -33.430
  H      224.320    -282.725     -31.828

 6  7  8  9  10  11  12  13  14  15  25  28  32  33  34  35 0
 6-311+G(2d,p)
 ****
 36  39  40 0
 6-311+G(2d,p)
 ****
 1  2  3  4  5  16  17  18  19  20  21  22  23  24 0
 3-21G
 ****
 26  27  29  30  31  37  38  41  42  43  44  45  46  47 0
 3-21G
 ****
 48 0
 3-21G
 ****


