%nproc=1
%NoSave
%Mem=1900MB
#P OB98/GEN NMR

erre ene a

0 1
  C      559.825     328.646      77.330
  O      560.378     329.933      77.652
  P      561.710     330.386      76.896
  C      560.286     332.130      75.582
  O      561.287     331.128      75.529
  C      560.717     333.359      74.778
  O      561.801     334.068      75.426
  C      561.228     333.039      73.390
  O      560.166     332.853      72.456
  C      562.009     334.303      73.050
  O      561.097     335.335      72.628
  C      562.633     334.669      74.393
  N      567.548     335.435      73.187
  C      566.422     336.089      72.837
  N      565.146     335.813      73.178
  C      565.098     334.744      73.994
  C      566.164     333.977      74.442
  C      567.441     334.368      74.011
  N      568.588     333.697      74.375
  N      565.721     332.961      75.260
  C      564.418     333.112      75.314
  N      563.989     334.172      74.560
  O      562.331     329.005      76.376
  O      562.674     331.137      77.753
  H      561.632     336.110      72.381
  H      563.306     329.053      76.392
  H      566.555     336.945      72.183
  H      563.740     332.481      75.887
  H      562.657     335.745      74.566
  H      562.717     334.148      72.232
  H      561.900     332.164      73.401
  H      559.852     334.046      74.700
  H      560.085     332.412      76.619
  H      569.474     334.048      74.045
  H      568.517     332.914      74.997
  H      559.350     331.726      75.192
  P      560.444     331.924      71.183
  C      559.409     329.667      71.927
  O      560.572     330.427      71.742
  O      561.942     332.328      70.765
  O      559.478     332.114      70.064
  H      562.062     332.222      69.805
  H      559.683     328.612      72.020
  H      558.724     329.778      71.078
  H      558.901     329.970      72.848
  H      558.941     328.482      77.911
  H      560.543     327.884      77.550
  H      559.579     328.614      76.289

 3  4  5  6  7  8  9  10  11  12  22  25  29  30  31  32 0
 6-311+G(2d,p)
 ****
 33  36  37 0
 6-311+G(2d,p)
 ****
 1  2  13  14  15  16  17  18  19  20  21  23  24  26 0
 3-21G
 ****
 27  28  34  35  38  39  40  41  42  43  44  45  46  47  48 0
 3-21G
 ****


