%nproc=1
%NoSave
%Mem=1900MB
#P OB98/GEN NMR

erre ene a

0 1
  C       44.801      82.582    -103.290
  O       45.147      81.218    -103.062
  P       44.510      80.297    -101.925
  C       46.443      78.571    -101.523
  O       45.151      78.836    -102.049
  C       46.919      77.133    -101.787
  O       45.848      76.204    -101.474
  C       47.243      76.937    -103.268
  O       48.505      77.323    -103.776
  C       46.876      75.488    -103.555
  O       47.993      74.606    -103.437
  C       45.830      75.172    -102.482
  N       42.405      72.100    -104.717
  C       43.723      71.848    -104.393
  N       44.211      70.642    -104.753
  N       44.497      72.707    -103.788
  C       43.910      73.904    -103.564
  C       42.619      74.280    -103.857
  C       41.751      73.301    -104.475
  O       40.573      73.469    -104.772
  N       42.384      75.585    -103.504
  C       43.535      76.003    -103.022
  N       44.494      75.016    -103.030
  O       43.028      80.375    -101.787
  O       45.158      80.882    -100.568
  H       48.366      74.712    -102.544
  H       44.486      80.767     -99.866
  H       41.847      71.392    -105.162
  H       43.727      77.003    -102.650
  H       46.065      74.233    -101.967
  H       46.503      75.381    -104.581
  H       43.705      69.984    -105.325
  H       46.520      77.538    -103.835
  H       45.227      70.535    -104.715
  H       47.746      76.869    -101.124
  H       46.393      78.767    -100.448
  H       47.165      79.278    -101.933
  P       48.788      77.990    -105.204
  C       50.898      76.571    -105.514
  O       50.357      77.880    -105.498
  O       48.590      79.556    -104.946
  O       47.902      77.517    -106.309
  H       48.484      80.030    -105.791
  H       51.984      76.634    -105.412
  H       50.657      76.086    -106.463
  H       50.498      75.973    -104.688
  H       45.374      82.963    -104.110
  H       45.011      83.155    -102.411
  H       43.758      82.652    -103.520

 3  4  5  6  7  8  9  10  11  12  23  26  30  31 0
 6-311+G(2d,p)
 ****
 33  35  36  37  38 0
 6-311+G(2d,p)
 ****
 1  2  13  14  15  16  17  18  19  20  21  22  24  25 0
 3-21G
 ****
 27  28  29  32  34  39  40  41  42  43  44  45  46  47  48  49 0
 3-21G
 ****


