%nproc=1
%NoSave
%Mem=1900MB
#P OB98/GEN NMR

erre ene a

0 1
  C      813.959    -408.284     853.612
  O      813.849    -408.654     852.255
  H      813.811    -409.168     854.238
  H      813.189    -407.549     853.863
  H      814.949    -407.867     853.824
  P      814.263    -407.559     851.160
  C      811.861    -406.884     850.441
  O      813.056    -406.500     851.096
  C      810.946    -405.668     850.261
  O      810.321    -405.366     851.541
  C      811.684    -404.394     849.804
  O      810.823    -403.674     848.925
  C      811.857    -403.611     851.098
  O      812.024    -402.216     850.906
  C      810.548    -403.968     851.822
  N      810.621    -403.730     853.262
  C      810.664    -402.410     853.685
  O      810.563    -401.423     852.942
  N      810.839    -402.216     855.035
  C      810.994    -403.205     855.969
  O      811.166    -402.979     857.157
  C      810.953    -404.588     855.459
  C      810.775    -404.780     854.145
  O      814.123    -408.365     849.781
  O      815.613    -406.953     851.332
  H      814.965    -408.803     849.553
  H      811.315    -401.917     850.306
  H      810.870    -401.269     855.356
  H      811.087    -405.392     856.167
  H      810.753    -405.785     853.734
  H      809.707    -403.402     851.395
  H      812.720    -403.990     851.654
  H      812.648    -404.596     849.314
  H      810.144    -405.926     849.560
  H      811.333    -407.637     851.049
  H      812.100    -407.325     849.467
  P      811.188    -403.688     847.361
  C      813.036    -401.827     847.248
  O      812.720    -403.216     847.260
  O      810.346    -402.425     846.829
  O      810.856    -404.988     846.696
  H      810.308    -401.705     847.480
  H      814.096    -401.703     847.177
  H      812.684    -401.373     848.151
  H      812.565    -401.361     846.408

 6  7  8  9  10  11  12  13  14  15  16  27  31  32  33  34  35 0
 6-311+G(2d,p)
 ****
 36  37 0
 6-311+G(2d,p)
 ****
 1  2  3  4  5  17  18  19  20  21  22  23  24  25 0
 3-21G
 ****
 26  28  29  30  38  39  40  41  42  43  44  45 0
 3-21G
 ****


