%nproc=1
%NoSave
%Mem=1900MB
#P OB98/GEN NMR

erre ene a

0 1
  C        9.543    -183.599    -408.116
  O        8.712    -183.420    -409.247
  H       10.255    -182.771    -408.070
  H       10.101    -184.535    -408.195
  H        8.946    -183.598    -407.200
  P        7.580    -184.514    -409.536
  C        6.549    -182.559    -410.869
  O        6.746    -183.964    -410.790
  C        5.326    -182.251    -411.724
  O        4.133    -182.764    -411.099
  C        5.089    -180.759    -411.951
  O        5.926    -180.276    -412.990
  C        3.616    -180.767    -412.324
  O        3.462    -181.218    -413.684
  C        3.057    -181.818    -411.349
  N       -0.960    -180.356    -408.626
  C       -0.886    -180.794    -409.934
  N       -2.046    -180.802    -410.626
  N        0.223    -181.169    -410.514
  C        1.310    -181.040    -409.721
  C        1.367    -180.603    -408.417
  C        0.124    -180.244    -407.767
  O        0.013    -179.867    -406.605
  N        2.659    -180.546    -407.961
  C        3.379    -180.984    -408.975
  N        2.608    -181.284    -410.073
  O        6.726    -184.911    -408.370
  O        8.384    -185.756    -410.142
  H        4.045    -180.660    -414.229
  H        8.637    -186.388    -409.445
  H       -1.843    -180.062    -408.242
  H        4.455    -181.106    -408.967
  H        2.218    -182.379    -411.777
  H        3.148    -179.786    -412.251
  H       -2.851    -180.265    -410.328
  H        5.210    -180.183    -411.028
  H       -2.006    -181.071    -411.601
  H        5.440    -182.778    -412.679
  H        7.448    -182.123    -411.317
  H        6.415    -182.136    -409.869
  P        6.833    -178.967    -412.782
  C        8.061    -179.589    -414.968
  O        7.355    -178.588    -414.249
  O        7.905    -179.104    -411.755
  O        5.789    -177.801    -412.473
  H        5.570    -177.709    -411.513
  H        8.349    -179.205    -415.924
  H        7.431    -180.443    -415.102
  H        8.935    -179.873    -414.419

 6  7  8  9  10  11  12  13  14  15  26  29  33  34 0
 6-311+G(2d,p)
 ****
 36  38  39  40  41 0
 6-311+G(2d,p)
 ****
 1  2  3  4  5  16  17  18  19  20  21  22  23  24  25 0
 3-21G
 ****
 27  28  30  31  32  35  37  42  43  44  45  46  47 0
 3-21G
 ****
 48  49 0
 3-21G
 ****


