%nproc=1
%NoSave
%Mem=1900MB
#P OB98/GEN NMR

erre ene a

0 1
  C      439.691    -157.951    -162.596
  O      440.802    -157.131    -162.255
  P      440.525    -155.867    -161.303
  C      440.070    -154.295    -163.318
  O      439.571    -154.861    -162.118
  C      439.887    -152.773    -163.320
  O      438.471    -152.468    -163.438
  C      440.409    -152.071    -162.056
  O      440.917    -150.800    -162.471
  C      439.139    -151.912    -161.235
  O      439.241    -150.960    -160.189
  C      438.140    -151.584    -162.342
  N      434.158    -149.417    -159.968
  C      435.393    -148.949    -160.278
  N      436.398    -149.578    -160.922
  C      436.028    -150.828    -161.263
  C      434.817    -151.448    -160.993
  C      433.858    -150.687    -160.317
  N      432.605    -151.178    -159.993
  N      434.821    -152.744    -161.478
  C      436.013    -152.900    -162.019
  N      436.768    -151.766    -161.936
  O      441.934    -155.109    -161.296
  O      440.061    -156.207    -159.918
  H      439.792    -151.319    -159.464
  H      442.136    -154.748    -160.413
  H      435.594    -147.923    -159.970
  H      436.375    -153.812    -162.474
  H      438.252    -150.553    -162.704
  H      438.894    -152.877    -160.769
  H      441.198    -152.627    -161.541
  H      440.384    -152.368    -164.211
  H      439.517    -154.706    -164.172
  H      432.063    -150.627    -159.335
  H      432.464    -152.174    -160.072
  H      441.121    -154.566    -163.443
  P      442.072    -150.100    -161.598
  C      440.202    -149.086    -160.155
  O      441.376    -149.869    -160.166
  O      442.064    -148.623    -162.203
  O      443.401    -150.780    -161.616
  H      441.163    -148.251    -162.230
  H      439.785    -149.090    -159.144
  H      439.456    -149.510    -160.844
  H      440.431    -148.057    -160.441
  H      440.018    -158.749    -163.230
  H      438.959    -157.364    -163.110
  H      439.260    -158.357    -161.705

 3  4  5  6  7  8  9  10  11  12  22  25  29  30  31  32 0
 6-311+G(2d,p)
 ****
 33  36  37 0
 6-311+G(2d,p)
 ****
 1  2  13  14  15  16  17  18  19  20  21  23  24  26 0
 3-21G
 ****
 27  28  34  35  38  39  40  41  42  43  44  45  46  47  48 0
 3-21G
 ****


