%nproc=1
%NoSave
%Mem=1900MB
#P OB98/GEN NMR

erre ene a

0 1
  C      163.430     444.801     649.596
  O      162.894     446.058     649.235
  H      164.499     444.930     649.799
  H      163.313     444.089     648.779
  H      162.951     444.415     650.504
  P      161.332     446.146     648.889
  C      161.512     448.598     649.737
  O      161.056     447.733     648.705
  C      161.119     450.041     649.430
  O      159.742     450.127     648.984
  C      161.203     450.993     650.617
  O      162.521     451.336     650.983
  C      160.440     452.181     650.044
  O      161.263     452.875     649.105
  C      159.262     451.456     649.332
  N      158.067     451.349     650.171
  C      157.361     452.539     650.402
  O      157.742     453.620     649.909
  N      156.237     452.507     651.193
  C      155.868     451.391     651.740
  N      154.756     451.406     652.535
  C      156.597     450.113     651.549
  C      157.676     450.176     650.759
  O      160.406     445.439     649.822
  O      161.227     445.632     647.379
  H      160.655     453.427     648.550
  H      160.273     445.656     647.108
  H      156.263     449.211     652.048
  H      158.262     449.274     650.576
  H      159.004     451.963     648.396
  H      160.121     452.896     650.822
  H      160.644     450.596     651.480
  H      161.750     450.375     648.596
  H      154.280     452.292     652.643
  H      162.595     448.496     649.816
  H      154.434     450.598     653.045
  H      161.056     448.305     650.699
  P      162.788     451.640     652.537
  C      165.119     450.465     652.345
  O      164.384     451.620     652.739
  O      162.293     450.305     653.267
  O      162.119     452.879     653.070
  H      161.381     450.424     653.615
  H      166.159     450.618     652.547
  H      164.981     450.294     651.298
  H      164.770     449.616     652.894

 6  7  8  9  10  11  12  13  14  15  16  26  30  31  32  33  35 0
 6-311+G(2d,p)
 ****
 37  38 0
 6-311+G(2d,p)
 ****
 1  2  3  4  5  17  18  19  20  21  22  23  24  25 0
 3-21G
 ****
 27  28  29  34  36  39  40  41  42  43  44  45  46 0
 3-21G
 ****


