%nproc=1
%NoSave
%Mem=1900MB
#P OB98/GEN NMR

erre ene a

0 1
  C      -41.236       8.420     130.142
  O      -40.671       9.031     131.284
  P      -40.212      10.563     131.263
  C      -38.178      10.038     129.794
  O      -38.629      10.605     131.017
  C      -36.768      10.514     129.446
  O      -36.274       9.761     128.308
  C      -36.677      12.006     129.098
  O      -35.446      12.494     129.645
  C      -36.624      12.001     127.583
  O      -36.048      13.189     127.057
  C      -35.825      10.719     127.329
  N      -35.994      10.216     125.975
  C      -35.246      10.835     124.972
  O      -34.586      11.844     125.226
  N      -35.279      10.302     123.707
  C      -36.128       9.362     123.432
  N      -36.081       8.816     122.186
  C      -37.112       8.856     124.411
  C      -36.961       9.289     125.661
  O      -40.681      11.379     132.421
  O      -40.805      11.132     129.887
  H      -41.330      11.935     130.073
  H      -36.685      13.926     127.168
  H      -37.881       8.164     124.103
  H      -37.615       8.956     126.458
  H      -34.755      10.889     127.511
  H      -37.638      11.907     127.179
  H      -37.510      12.588     129.505
  H      -36.113      10.285     130.296
  H      -35.368       9.159     121.555
  H      -38.864      10.348     129.003
  H      -36.466       7.893     121.984
  H      -38.212       8.945     129.857
  P      -35.436      13.954     130.315
  C      -34.280      15.196     128.351
  O      -34.204      14.771     129.697
  O      -34.906      13.623     131.797
  O      -36.749      14.662     130.394
  H      -35.219      14.316     132.407
  H      -33.335      15.673     128.083
  H      -35.087      15.925     128.228
  H      -34.445      14.344     127.686
  H      -41.473       7.400     130.363
  H      -40.535       8.456     129.334
  H      -42.128       8.941     129.863

 3  4  5  6  7  8  9  10  11  12  13  24  27  28  29  30  32 0
 6-311+G(2d,p)
 ****
 34  35 0
 6-311+G(2d,p)
 ****
 1  2  14  15  16  17  18  19  20  21  22  23  25  26 0
 3-21G
 ****
 31  33  36  37  38  39  40  41  42  43  44  45  46 0
 3-21G
 ****


