%nproc=1
%NoSave
%Mem=1900MB
#P OB98/GEN NMR

erre ene a

0 1
  C      158.380     200.162    -196.486
  O      158.270     198.959    -195.754
  H      157.751     200.090    -197.377
  H      159.416     200.312    -196.799
  H      158.045     201.012    -195.884
  P      158.923     198.924    -194.290
  C      156.755     198.434    -192.943
  O      157.770     199.372    -193.265
  C      155.622     199.131    -192.189
  O      154.939     200.032    -193.108
  C      154.568     198.170    -191.621
  O      154.110     198.691    -190.368
  C      153.442     198.257    -192.637
  O      152.171     197.891    -192.119
  C      153.531     199.732    -193.041
  N      152.873     200.006    -194.316
  C      151.541     200.410    -194.274
  O      150.908     200.631    -193.245
  N      150.931     200.555    -195.495
  C      151.500     200.324    -196.712
  O      150.893     200.453    -197.769
  C      152.903     199.892    -196.691
  C      153.515     199.753    -195.511
  O      159.912     200.182    -194.309
  O      159.617     197.654    -193.927
  H      160.794     199.916    -194.629
  H      152.226     196.954    -191.841
  H      149.966     200.847    -195.482
  H      153.384     199.688    -197.636
  H      154.545     199.415    -195.459
  H      153.099     200.368    -192.258
  H      153.661     197.604    -193.490
  H      154.923     197.144    -191.487
  H      156.055     199.750    -191.395
  H      157.176     197.649    -192.308
  H      156.378     197.980    -193.865
  P      154.731     198.053    -189.035
  C      155.622     200.416    -188.340
  O      155.907     199.048    -188.587
  O      155.492     196.778    -189.626
  O      153.701     197.753    -187.998
  H      155.876     196.939    -190.504
  H      156.521     200.922    -188.054
  H      154.903     200.494    -187.552
  H      155.228     200.864    -189.228

 6  7  8  9  10  11  12  13  14  15  16  27  31  32  33  34  35 0
 6-311+G(2d,p)
 ****
 36  37 0
 6-311+G(2d,p)
 ****
 1  2  3  4  5  17  18  19  20  21  22  23  24  25 0
 3-21G
 ****
 26  28  29  30  38  39  40  41  42  43  44  45 0
 3-21G
 ****


