%nproc=1
%NoSave
%Mem=1900MB
#P OB98/GEN NMR

erre ene a

0 1
  C      426.600    -479.847     -52.384
  O      426.954    -478.994     -51.313
  H      425.515    -479.791     -52.525
  H      426.874    -480.873     -52.154
  H      427.087    -479.523     -53.308
  P      428.519    -478.845     -50.994
  C      428.168    -476.332     -50.445
  O      428.669    -477.594     -50.002
  C      428.526    -475.228     -49.460
  O      427.703    -475.381     -48.258
  C      429.997    -475.227     -49.017
  O      430.403    -473.865     -48.832
  C      429.942    -475.897     -47.650
  O      431.072    -475.582     -46.841
  C      428.613    -475.344     -47.136
  N      429.685    -476.850     -42.446
  C      430.393    -476.031     -43.309
  N      431.565    -475.534     -42.869
  N      429.975    -475.720     -44.515
  C      428.767    -476.267     -44.829
  C      427.979    -477.092     -44.077
  C      428.459    -477.443     -42.746
  O      427.893    -478.179     -41.947
  N      426.841    -477.451     -44.758
  C      426.952    -476.846     -45.912
  N      428.108    -476.106     -46.015
  O      429.105    -478.310     -52.379
  O      429.206    -480.097     -50.540
  H      431.844    -476.085     -47.196
  H      429.426    -479.053     -52.927
  H      430.057    -477.062     -41.536
  H      426.224    -476.888     -46.718
  H      428.694    -474.302     -46.800
  H      429.898    -476.988     -47.770
  H      431.926    -475.689     -41.932
  H      430.678    -475.724     -49.714
  H      432.075    -474.898     -43.470
  H      428.250    -474.257     -49.902
  H      427.072    -476.400     -50.534
  H      428.585    -476.108     -51.433
  P      431.591    -473.294     -49.747
  C      431.026    -470.898     -50.575
  O      431.635    -471.695     -49.576
  O      431.001    -473.476     -51.234
  O      432.896    -474.000     -49.589
  H      431.734    -473.591     -51.868
  H      431.137    -469.864     -50.323
  H      429.986    -471.140     -50.639
  H      431.495    -471.088     -51.518

 6  7  8  9  10  11  12  13  14  15  26  29  33  34 0
 6-311+G(2d,p)
 ****
 36  38  39  40  41 0
 6-311+G(2d,p)
 ****
 1  2  3  4  5  16  17  18  19  20  21  22  23  24  25 0
 3-21G
 ****
 27  28  30  31  32  35  37  42  43  44  45  46  47 0
 3-21G
 ****
 48  49 0
 3-21G
 ****


