%nproc=1
%NoSave
%Mem=1900MB
#P OB98/GEN NMR

erre ene a

0 1
  C      855.801     812.954    -167.535
  O      855.876     812.400    -168.831
  H      855.703     812.141    -166.812
  H      854.931     813.609    -167.447
  H      856.715     813.514    -167.307
  P      855.913     813.398    -170.090
  C      854.206     811.914    -171.350
  O      855.486     812.532    -171.370
  C      854.215     810.608    -172.144
  O      855.216     809.719    -171.579
  C      852.873     809.858    -172.123
  O      852.763     809.131    -173.358
  C      853.081     808.906    -170.959
  O      852.116     807.888    -170.945
  C      854.538     808.505    -171.191
  N      855.142     807.882    -170.023
  C      855.320     806.501    -170.073
  O      854.975     805.864    -171.072
  N      855.871     805.864    -168.988
  C      856.148     806.541    -167.922
  N      856.673     805.847    -166.874
  C      855.915     808.001    -167.798
  C      855.423     808.596    -168.884
  O      857.166     814.188    -170.254
  O      854.641     814.351    -169.859
  H      851.257     808.228    -170.602
  H      854.944     815.226    -169.545
  H      856.145     808.514    -166.873
  H      855.220     809.671    -168.885
  H      854.615     807.799    -172.036
  H      852.979     809.442    -170.007
  H      852.009     810.519    -171.999
  H      854.528     810.832    -173.177
  H      856.802     804.846    -166.995
  H      853.501     812.624    -171.792
  H      856.903     806.264    -165.984
  H      853.901     811.715    -170.321
  P      851.748     809.541    -174.525
  C      850.575     807.283    -174.942
  O      851.464     808.264    -175.455
  O      852.154     810.764    -175.284
  O      850.342     809.781    -173.791
  H      849.841     810.460    -174.276
  H      850.471     806.490    -175.652
  H      849.619     807.728    -174.762
  H      850.965     806.892    -174.026

 6  7  8  9  10  11  12  13  14  15  16  26  30  31  32  33  35 0
 6-311+G(2d,p)
 ****
 37  38 0
 6-311+G(2d,p)
 ****
 1  2  3  4  5  17  18  19  20  21  22  23  24  25 0
 3-21G
 ****
 27  28  29  34  36  39  40  41  42  43  44  45  46 0
 3-21G
 ****


