%nproc=1
%NoSave
%Mem=1900MB
#P OB98/GEN NMR

erre ene a

0 1
  C      515.848    1278.472      37.725
  O      516.809    1279.162      38.492
  H      515.129    1278.008      38.411
  H      516.326    1277.696      37.135
  H      515.307    1279.172      37.083
  P      518.029    1279.894      37.742
  C      516.840    1282.161      38.096
  O      517.439    1281.270      37.160
  C      516.008    1283.228      37.349
  O      515.334    1282.543      36.252
  C      514.944    1283.859      38.247
  O      514.998    1285.290      38.257
  C      513.649    1283.207      37.794
  O      512.473    1283.962      38.004
  C      513.921    1282.873      36.316
  N      513.124    1281.785      35.783
  C      511.847    1282.093      35.334
  O      511.333    1283.210      35.345
  N      511.104    1281.034      34.855
  C      511.519    1279.731      34.784
  O      510.828    1278.825      34.325
  C      512.876    1279.465      35.279
  C      513.610    1280.478      35.756
  O      518.766    1279.051      36.765
  O      518.980    1280.379      38.924
  H      512.555    1284.378      38.884
  H      519.751    1279.784      38.993
  H      510.170    1281.238      34.530
  H      513.250    1278.449      35.260
  H      514.610    1280.326      36.135
  H      513.745    1283.762      35.701
  H      513.517    1282.255      38.344
  H      515.102    1283.588      39.306
  H      516.679    1283.973      36.925
  H      517.647    1282.639      38.670
  H      516.191    1281.598      38.779
  P      516.043    1286.150      39.087
  C      517.532    1286.860      37.054
  O      517.426    1286.166      38.278
  O      516.102    1285.857      40.549
  O      515.495    1287.662      38.908
  H      515.711    1288.127      39.738
  H      518.525    1286.755      36.669
  H      517.319    1287.897      37.212
  H      516.833    1286.455      36.353

 6  7  8  9  10  11  12  13  14  15  16  26  31  32  33  34  35 0
 6-311+G(2d,p)
 ****
 36  37 0
 6-311+G(2d,p)
 ****
 1  2  3  4  5  17  18  19  20  21  22  23  24  25 0
 3-21G
 ****
 27  28  29  30  38  39  40  41  42  43  44  45 0
 3-21G
 ****


