%nproc=1
%NoSave
%Mem=1900MB
#P OB98/GEN NMR

erre ene a

0 1
  C      106.887     -53.334    -345.068
  O      107.018     -52.990    -346.434
  H      105.887     -53.052    -344.726
  H      107.629     -52.790    -344.476
  H      107.018     -54.411    -344.929
  P      108.325     -53.533    -347.184
  C      109.375     -51.134    -347.362
  O      109.507     -52.476    -346.909
  C      110.700     -50.642    -347.933
  O      111.697     -50.541    -346.899
  C      111.329     -51.580    -348.950
  O      110.652     -51.573    -350.187
  C      112.739     -51.008    -349.026
  O      112.815     -49.906    -349.941
  C      112.979     -50.532    -347.574
  N      113.968     -51.350    -346.895
  C      115.265     -50.821    -346.867
  O      115.499     -49.725    -347.382
  N      116.266     -51.564    -346.297
  C      116.003     -52.740    -345.820
  N      117.045     -53.440    -345.299
  C      114.651     -53.335    -345.830
  C      113.688     -52.592    -346.377
  O      107.967     -53.288    -348.722
  O      108.692     -54.940    -346.859
  H      112.204     -49.221    -349.597
  H      107.635     -52.393    -348.910
  H      114.479     -54.315    -345.409
  H      112.666     -52.950    -346.428
  H      113.330     -49.490    -347.562
  H      113.458     -51.758    -349.369
  H      111.396     -52.596    -348.537
  H      110.538     -49.643    -348.359
  H      117.965     -53.018    -345.363
  H      109.045     -50.483    -346.544
  H      116.976     -54.394    -344.973
  H      108.597     -51.119    -348.130
  P      110.861     -52.748    -351.256
  C      112.789     -51.475    -352.396
  O      112.396     -52.670    -351.733
  O      109.872     -52.779    -352.373
  O      110.861     -54.067    -350.347
  H      111.557     -54.096    -349.668
  H      113.823     -51.539    -352.664
  H      112.641     -50.640    -351.744
  H      112.199     -51.347    -353.280

 6  7  8  9  10  11  12  13  14  15  16  26  30  31  32  33  35 0
 6-311+G(2d,p)
 ****
 37  38 0
 6-311+G(2d,p)
 ****
 1  2  3  4  5  17  18  19  20  21  22  23  24  25 0
 3-21G
 ****
 27  28  29  34  36  39  40  41  42  43  44  45  46 0
 3-21G
 ****


