%nproc=1
%NoSave
%Mem=1900MB
#P OB98/GEN NMR

erre ene a

0 1
  C     -713.120     269.008    -501.636
  O     -712.247     268.226    -500.790
  P     -712.371     266.647    -500.883
  C     -713.802     266.452    -498.721
  O     -712.605     266.070    -499.399
  C     -714.335     265.272    -497.898
  O     -714.769     264.176    -498.749
  C     -713.294     264.678    -496.955
  O     -713.113     265.504    -495.818
  C     -713.951     263.329    -496.638
  O     -714.986     263.475    -495.644
  C     -714.571     262.955    -498.000
  N     -714.333     258.241    -499.988
  C     -715.280     258.861    -499.253
  N     -715.265     260.134    -498.759
  C     -714.136     260.758    -499.105
  C     -713.080     260.257    -499.842
  C     -713.209     258.920    -500.285
  N     -712.206     258.272    -501.013
  N     -712.068     261.190    -499.985
  C     -712.516     262.250    -499.312
  N     -713.772     262.039    -498.763
  O     -710.891     266.162    -501.245
  O     -713.363     266.177    -501.918
  H     -714.546     263.705    -494.795
  H     -710.844     265.863    -502.175
  H     -716.187     258.285    -499.041
  H     -711.962     263.181    -499.192
  H     -715.562     262.500    -497.890
  H     -713.243     262.591    -496.266
  H     -712.339     264.534    -497.475
  H     -715.215     265.626    -497.332
  H     -714.563     266.783    -499.442
  H     -712.355     257.294    -501.230
  H     -711.351     258.764    -501.165
  H     -713.578     267.317    -498.078
  P     -711.874     266.530    -495.844
  C     -710.736     265.289    -493.890
  O     -711.329     266.500    -494.325
  O     -712.620     267.942    -495.929
  O     -710.842     266.249    -496.902
  H     -713.362     268.004    -495.300
  H     -710.386     265.432    -492.865
  H     -709.876     265.035    -494.525
  H     -711.479     264.473    -493.921
  H     -712.934     270.049    -501.475
  H     -714.139     268.787    -501.398
  H     -712.933     268.767    -502.662

 3  4  5  6  7  8  9  10  11  12  22  25  29  30  31  32 0
 6-311+G(2d,p)
 ****
 33  36  37 0
 6-311+G(2d,p)
 ****
 1  2  13  14  15  16  17  18  19  20  21  23  24  26 0
 3-21G
 ****
 27  28  34  35  38  39  40  41  42  43  44  45  46  47  48 0
 3-21G
 ****


