%nproc=1
%NoSave
%Mem=1900MB
#P OB98/GEN NMR

erre ene a

0 1
  C      262.694     393.301    -689.436
  O      263.410     392.617    -688.433
  H      262.749     394.376    -689.235
  H      261.639     393.004    -689.421
  H      263.124     393.106    -690.420
  P      263.457     391.014    -688.452
  C      266.020     391.101    -688.281
  O      264.819     390.618    -687.689
  C      267.255     390.533    -687.571
  O      267.276     391.002    -686.195
  C      267.297     389.002    -687.544
  O      268.595     388.543    -687.921
  C      267.045     388.660    -686.077
  O      267.564     387.391    -685.695
  C      267.684     389.881    -685.393
  N      267.265     390.005    -684.004
  C      268.203     390.541    -683.116
  O      269.316     390.877    -683.526
  N      267.887     390.629    -681.790
  C      266.745     390.179    -681.367
  N      266.501     390.263    -680.033
  C      265.729     389.581    -682.262
  C      266.047     389.535    -683.557
  O      263.295     390.398    -689.805
  O      262.326     390.556    -687.419
  H      268.530     387.385    -685.866
  H      262.054     389.633    -687.626
  H      264.798     389.217    -681.866
  H      265.370     389.108    -684.291
  H      268.779     389.816    -685.423
  H      265.963     388.657    -685.888
  H      266.551     388.533    -688.187
  H      268.146     390.948    -688.055
  H      267.228     390.671    -679.455
  H      266.018     392.196    -688.234
  H      265.668     389.924    -679.588
  H      266.036     390.784    -689.330
  P      268.667     387.646    -689.253
  C      270.342     389.386    -690.216
  O      270.028     388.012    -690.024
  O      267.520     388.270    -690.181
  O      268.442     386.193    -689.003
  H      266.777     387.643    -690.259
  H      271.271     389.470    -690.740
  H      270.425     389.869    -689.265
  H      269.567     389.853    -690.787

 6  7  8  9  10  11  12  13  14  15  16  26  30  31  32  33  35 0
 6-311+G(2d,p)
 ****
 37  38 0
 6-311+G(2d,p)
 ****
 1  2  3  4  5  17  18  19  20  21  22  23  24  25 0
 3-21G
 ****
 27  28  29  34  36  39  40  41  42  43  44  45  46 0
 3-21G
 ****


