%nproc=1
%NoSave
%Mem=1900MB
#P OB98/GEN NMR

erre ene a

0 1
  C       19.581     125.248     -79.400
  O       20.057     126.050     -80.469
  P       21.630     126.283     -80.679
  C       21.455     124.995     -82.896
  O       22.138     125.113     -81.654
  C       22.284     125.601     -84.027
  O       23.647     125.125     -83.915
  C       21.781     125.228     -85.416
  O       21.972     126.343     -86.293
  C       22.708     124.108     -85.864
  O       22.786     124.039     -87.297
  C       24.012     124.497     -85.160
  N       27.221     121.000     -87.119
  C       26.573     122.041     -87.688
  N       25.716     122.914     -87.111
  C       25.597     122.662     -85.797
  C       26.200     121.641     -85.078
  C       27.046     120.777     -85.794
  N       27.718     119.724     -85.213
  N       25.813     121.682     -83.753
  C       25.011     122.720     -83.672
  N       24.857     123.353     -84.879
  O       22.417     126.430     -79.423
  O       21.724     127.587     -81.597
  H       23.207     124.869     -87.602
  H       22.478     128.142     -81.321
  H       26.765     122.193     -88.745
  H       24.509     123.051     -82.775
  H       24.589     125.219     -85.750
  H       22.324     123.148     -85.499
  H       20.730     124.923     -85.421
  H       22.306     126.691     -83.901
  H       20.506     125.530     -82.819
  H       28.394     119.235     -85.776
  H       27.724     119.664     -84.203
  H       21.245     123.939     -83.097
  P       20.934     126.455     -87.522
  C       18.983     127.313     -86.029
  O       19.489     126.287     -86.850
  O       21.283     125.523     -88.637
  O       21.052     128.010     -87.886
  H       21.351     128.539     -87.113
  H       18.010     127.000     -85.637
  H       18.840     128.228     -86.611
  H       19.658     127.504     -85.191
  H       18.512     125.214     -79.428
  H       19.900     125.668     -78.469
  H       19.972     124.257     -79.496

 3  4  5  6  7  8  9  10  11  12  22  25  29  30  31  32 0
 6-311+G(2d,p)
 ****
 33  36  37 0
 6-311+G(2d,p)
 ****
 1  2  13  14  15  16  17  18  19  20  21  23  24  26 0
 3-21G
 ****
 27  28  34  35  38  39  40  41  42  43  44  45  46  47  48 0
 3-21G
 ****


