%nproc=1
%NoSave
%Mem=1900MB
#P OB98/GEN NMR

erre ene a

0 1
  C      244.686     311.267     125.543
  O      243.501     310.523     125.775
  P      242.619     309.951     124.560
  C      243.845     307.687     124.795
  O      243.475     308.751     123.938
  C      245.122     307.012     124.295
  O      245.711     306.261     125.386
  C      244.907     306.043     123.126
  O      246.063     306.132     122.281
  C      244.848     304.698     123.811
  O      245.146     303.618     122.933
  C      245.869     304.900     124.936
  N      245.681     303.956     126.040
  C      246.229     302.679     125.897
  O      246.822     302.355     124.870
  N      246.086     301.793     126.934
  C      245.389     302.116     127.972
  N      245.329     301.221     128.998
  C      244.707     303.415     128.117
  C      244.914     304.285     127.132
  O      242.174     310.980     123.574
  O      241.422     309.171     125.275
  H      245.097     302.787     123.440
  H      240.665     309.760     125.517
  H      244.111     303.630     128.992
  H      244.471     305.268     127.161
  H      246.887     304.819     124.544
  H      243.844     304.530     124.211
  H      244.015     306.279     122.537
  H      245.837     307.798     124.017
  H      245.951     300.421     128.943
  H      243.033     306.949     124.799
  H      245.099     301.515     129.939
  H      243.971     308.063     125.819
  P      245.892     305.802     120.723
  C      246.158     308.324     120.165
  O      245.413     307.136     119.976
  O      244.548     304.925     120.721
  O      247.002     305.029     120.081
  H      244.551     304.331     119.944
  H      245.696     309.122     119.580
  H      247.184     308.188     119.817
  H      246.157     308.611     121.217
  H      245.118     311.551     126.480
  H      244.451     312.144     124.977
  H      245.383     310.666     124.997

 3  4  5  6  7  8  9  10  11  12  13  23  27  28  29  30  32 0
 6-311+G(2d,p)
 ****
 34  35 0
 6-311+G(2d,p)
 ****
 1  2  14  15  16  17  18  19  20  21  22  24  25  26 0
 3-21G
 ****
 31  33  36  37  38  39  40  41  42  43  44  45  46 0
 3-21G
 ****


