%nproc=1
%NoSave
%Mem=1900MB
#P OB98/GEN NMR

erre ene a

0 1
  C      399.618     196.041     194.922
  O      399.618     197.096     193.979
  H      400.537     195.463     194.799
  H      398.764     195.384     194.749
  H      399.588     196.433     195.943
  P      398.470     198.209     194.066
  C      400.102     199.889     195.154
  O      398.868     199.195     195.269
  C      399.893     201.399     195.311
  O      399.616     201.690     196.718
  C      401.117     202.256     194.911
  O      400.614     203.510     194.430
  C      401.810     202.412     196.250
  O      402.824     203.384     196.224
  C      400.585     202.678     197.138
  N      400.819     202.588     198.573
  C      401.318     203.718     199.216
  O      401.573     204.789     198.665
  N      401.529     203.586     200.565
  C      401.286     202.467     201.315
  O      401.468     202.421     202.526
  C      400.764     201.309     200.576
  C      400.555     201.419     199.263
  O      397.071     197.697     194.109
  O      398.726     199.114     192.766
  H      398.081     198.877     192.073
  H      403.491     203.135     195.553
  H      401.890     204.395     201.049
  H      400.572     200.402     201.138
  H      400.164     200.578     198.692
  H      400.159     203.659     196.903
  H      402.297     201.473     196.528
  H      401.728     201.786     194.133
  H      399.002     201.695     194.745
  H      400.530     199.678     194.169
  H      400.793     199.523     195.926
  P      400.780     204.011     192.916
  C      398.676     202.862     191.927
  O      400.100     202.920     191.949
  O      402.187     204.349     192.541
  O      399.824     205.288     192.776
  H      400.161     205.878     192.076
  H      398.361     202.099     191.247
  H      398.285     203.806     191.609
  H      398.313     202.638     192.908

 6  7  8  9  10  11  12  13  14  15  16  27  31  32  33  34  35 0
 6-311+G(2d,p)
 ****
 36  37 0
 6-311+G(2d,p)
 ****
 1  2  3  4  5  17  18  19  20  21  22  23  24  25 0
 3-21G
 ****
 26  28  29  30  38  39  40  41  42  43  44  45 0
 3-21G
 ****


