%nproc=1
%NoSave
%Mem=1900MB
#P OB98/GEN NMR

erre ene a

0 1
  C     -372.398     -29.222     594.177
  O     -372.038     -29.535     592.814
  P     -370.585     -29.056     592.319
  C     -370.831     -28.312     589.814
  O     -370.563     -29.351     590.740
  C     -370.910     -28.891     588.393
  O     -369.680     -29.583     588.064
  C     -372.025     -29.881     588.193
  O     -373.300     -29.249     588.108
  C     -371.580     -30.568     586.908
  O     -371.925     -29.753     585.762
  C     -370.032     -30.593     587.082
  N     -369.533     -31.909     587.461
  C     -368.482     -32.397     586.688
  O     -368.008     -31.788     585.734
  N     -367.997     -33.625     587.067
  C     -368.457     -34.411     588.069
  O     -367.992     -35.494     588.368
  C     -369.612     -33.864     588.817
  C     -370.081     -32.655     588.493
  O     -369.661     -30.189     592.969
  O     -370.254     -27.664     592.729
  H     -370.076     -31.069     592.975
  H     -371.546     -30.200     584.976
  H     -367.216     -33.988     586.528
  H     -370.026     -34.467     589.608
  H     -370.937     -32.233     589.033
  H     -369.538     -30.287     586.152
  H     -372.031     -31.545     586.765
  H     -372.030     -30.614     589.019
  H     -371.022     -28.036     587.705
  H     -370.048     -27.552     589.860
  H     -371.760     -27.822     590.105
  P     -374.564     -30.075     588.669
  C     -376.112     -29.689     586.587
  O     -375.850     -29.444     587.965
  O     -374.650     -29.533     590.176
  O     -374.422     -31.564     588.555
  H     -374.528     -28.555     590.237
  H     -377.171     -29.495     586.387
  H     -375.876     -30.713     586.323
  H     -375.514     -29.005     585.987
  H     -373.381     -29.592     594.380
  H     -372.380     -28.161     594.316
  H     -371.699     -29.681     594.845

 3  4  5  6  7  8  9  10  11  12  13  24  28  29  30  31  32 0
 6-311+G(2d,p)
 ****
 33  34 0
 6-311+G(2d,p)
 ****
 1  2  14  15  16  17  18  19  20  21  22  23  25  26  27 0
 3-21G
 ****
 35  36  37  38  39  40  41  42  43  44  45 0
 3-21G
 ****


