%nproc=1
%NoSave
%Mem=1900MB
#P OB98/GEN NMR

erre ene a

0 1
  C      -43.335     211.197    -340.611
  O      -44.108     211.046    -339.436
  H      -43.971     211.000    -341.480
  H      -42.505     210.486    -340.620
  H      -42.949     212.217    -340.687
  P      -43.390     211.280    -338.022
  C      -44.086     213.722    -337.545
  O      -43.046     212.842    -337.959
  C      -43.583     214.640    -336.437
  O      -43.319     213.886    -335.236
  C      -42.287     215.377    -336.776
  O      -42.557     216.510    -337.584
  C      -41.797     215.733    -335.383
  O      -42.551     216.851    -334.875
  C      -42.146     214.455    -334.597
  N      -37.394     213.419    -333.161
  C      -38.118     214.595    -333.061
  N      -37.461     215.656    -332.545
  N      -39.362     214.724    -333.453
  C      -39.858     213.596    -334.013
  C      -39.235     212.383    -334.182
  C      -37.886     212.234    -333.694
  O      -37.217     211.207    -333.750
  N      -40.045     211.495    -334.857
  C      -41.160     212.166    -335.057
  N      -41.099     213.448    -334.578
  O      -42.226     210.390    -337.713
  O      -44.572     211.120    -336.955
  H      -42.223     217.027    -333.974
  H      -44.631     210.205    -336.629
  H      -36.438     213.390    -332.856
  H      -42.051     211.762    -335.540
  H      -42.412     214.667    -333.555
  H      -40.744     216.009    -335.355
  H      -36.450     215.685    -332.497
  H      -41.550     214.708    -337.241
  H      -37.953     216.536    -332.505
  H      -44.386     215.351    -336.198
  H      -44.914     213.108    -337.189
  H      -44.431     214.326    -338.394
  P      -41.468     217.063    -338.632
  C      -41.986     215.240    -340.394
  O      -41.036     215.773    -339.484
  O      -40.338     217.816    -338.023
  O      -42.323     217.899    -339.688
  H      -42.440     218.851    -339.434
  H      -41.567     214.389    -340.890
  H      -42.242     215.984    -341.119
  H      -42.865     214.945    -339.860

 6  7  8  9  10  11  12  13  14  15  26  29  33  34 0
 6-311+G(2d,p)
 ****
 36  38  39  40  41 0
 6-311+G(2d,p)
 ****
 1  2  3  4  5  16  17  18  19  20  21  22  23  24  25 0
 3-21G
 ****
 27  28  30  31  32  35  37  42  43  44  45  46  47 0
 3-21G
 ****
 48  49 0
 3-21G
 ****


