%nproc=1
%NoSave
%Mem=1900MB
#P OB98/GEN NMR

erre ene a

0 1
  C      565.819     387.907    -899.105
  O      564.862     387.971    -898.045
  P      565.303     387.426    -896.605
  C      564.309     387.751    -894.225
  O      564.491     388.285    -895.535
  C      563.967     388.862    -893.235
  O      565.168     389.573    -892.835
  C      563.034     389.937    -893.785
  O      561.658     389.542    -893.725
  C      563.286     391.069    -892.805
  O      562.573     390.850    -891.585
  C      564.809     390.932    -892.565
  N      568.138     394.832    -892.575
  C      567.482     394.209    -891.565
  N      566.587     393.207    -891.645
  C      566.380     392.835    -892.935
  C      566.978     393.402    -894.055
  C      567.897     394.441    -893.845
  N      568.590     395.033    -894.875
  N      566.524     392.770    -895.215
  C      565.691     391.828    -894.775
  N      565.592     391.820    -893.395
  O      566.812     387.968    -896.455
  O      565.227     385.939    -896.445
  H      561.615     390.987    -891.775
  H      567.296     387.425    -895.815
  H      567.683     394.600    -890.575
  H      565.150     391.133    -895.395
  H      565.078     391.154    -891.515
  H      562.963     392.045    -893.185
  H      563.329     390.245    -894.795
  H      563.531     388.390    -892.345
  H      565.227     387.260    -893.905
  H      569.362     395.641    -894.635
  H      568.565     394.618    -895.795
  H      563.502     387.006    -894.265
  P      560.596     390.488    -894.435
  C      557.999     390.625    -894.395
  O      559.163     389.877    -894.095
  O      560.792     390.162    -895.995
  O      560.796     391.963    -894.135
  H      560.522     390.932    -896.555
  H      557.135     389.958    -894.395
  H      558.080     391.076    -895.405
  H      557.849     391.418    -893.655
  H      565.387     388.303    -900.000
  H      566.104     386.889    -899.267
  H      566.682     388.481    -898.841

 3  4  5  6  7  8  9  10  11  12  22  25  29  30  31  32 0
 6-311+G(2d,p)
 ****
 33  36  37 0
 6-311+G(2d,p)
 ****
 1  2  13  14  15  16  17  18  19  20  21  23  24  26 0
 3-21G
 ****
 27  28  34  35  38  39  40  41  42  43  44  45  46  47  48 0
 3-21G
 ****


