%nproc=1
%NoSave
%Mem=1900MB
#P OB98/GEN NMR

erre ene a

0 1
  C      -83.654     140.923     233.077
  O      -83.126     139.618     232.960
  H      -84.708     140.849     233.358
  H      -83.582     141.452     232.125
  H      -83.125     141.480     233.855
  P      -81.605     139.441     232.492
  C      -80.249     139.190     234.674
  O      -80.885     138.518     233.591
  C      -80.470     138.415     235.977
  O      -81.826     138.671     236.420
  C      -80.300     136.898     235.798
  O      -79.382     136.323     236.723
  C      -81.734     136.381     235.808
  O      -81.875     135.041     236.230
  C      -82.463     137.407     236.683
  N      -83.899     137.491     236.424
  C      -84.695     136.453     236.897
  O      -84.289     135.485     237.539
  N      -86.035     136.558     236.620
  C      -86.634     137.565     235.925
  O      -87.841     137.608     235.713
  C      -85.738     138.622     235.430
  C      -84.432     138.536     235.696
  O      -80.878     140.703     232.163
  O      -81.702     138.472     231.219
  H      -82.829     134.871     236.367
  H      -81.606     138.997     230.403
  H      -86.621     135.816     236.969
  H      -86.179     139.431     234.865
  H      -83.742     139.300     235.347
  H      -82.331     137.173     237.739
  H      -82.128     136.440     234.786
  H      -79.849     136.671     234.823
  H      -79.792     138.809     236.744
  H      -80.682     140.192     234.749
  H      -79.175     139.279     234.472
  P      -78.182     135.348     236.328
  C      -76.420     135.954     238.173
  O      -77.351     135.015     237.654
  O      -77.401     135.744     235.121
  O      -78.930     133.959     235.990
  H      -78.405     133.523     235.287
  H      -75.966     135.556     239.056
  H      -76.928     136.865     238.413
  H      -75.664     136.149     237.441

 6  7  8  9  10  11  12  13  14  15  16  26  31  32  33  34  35 0
 6-311+G(2d,p)
 ****
 36  37 0
 6-311+G(2d,p)
 ****
 1  2  3  4  5  17  18  19  20  21  22  23  24  25 0
 3-21G
 ****
 27  28  29  30  38  39  40  41  42  43  44  45 0
 3-21G
 ****


