%nproc=1
%NoSave
%Mem=1900MB
#P OB98/GEN NMR

erre ene a

0 1
  C       26.619    -439.485     -67.115
  O       26.411    -439.987     -68.445
  P       27.670    -440.128     -69.436
  C       29.322    -442.034     -70.152
  O       28.155    -441.658     -69.430
  C       29.443    -443.559     -70.211
  O       29.492    -444.118     -68.879
  C       28.268    -444.254     -70.890
  O       28.331    -444.142     -72.303
  C       28.436    -445.687     -70.387
  O       29.407    -446.397     -71.173
  C       28.961    -445.459     -68.955
  N       27.938    -445.685     -67.935
  C       28.347    -446.354     -66.786
  O       29.483    -446.791     -66.623
  N       27.383    -446.530     -65.823
  C       26.066    -446.177     -65.934
  O       25.245    -446.384     -65.045
  C       25.678    -445.551     -67.202
  C       26.611    -445.342     -68.132
  O       28.835    -439.412     -68.598
  O       27.515    -439.493     -70.778
  H       29.223    -447.349     -71.054
  H       29.497    -439.039     -69.211
  H       27.664    -446.985     -64.972
  H       24.637    -445.274     -67.335
  H       26.343    -444.876     -69.081
  H       29.806    -446.130     -68.751
  H       27.502    -446.259     -70.432
  H       27.324    -443.845     -70.506
  H       30.388    -443.806     -70.723
  H       30.204    -441.626     -69.645
  H       29.271    -441.609     -71.162
  P       27.600    -442.868     -72.956
  C       28.446    -440.455     -73.538
  O       28.766    -441.789     -73.197
  O       26.771    -442.317     -71.699
  O       26.764    -443.213     -74.146
  H       27.248    -442.456     -70.858
  H       27.511    -440.132     -73.068
  H       28.350    -440.377     -74.628
  H       29.251    -439.801     -73.203
  H       25.685    -439.456     -66.595
  H       27.029    -438.498     -67.166
  H       27.298    -440.127     -66.594

 3  4  5  6  7  8  9  10  11  12  13  23  28  29  30  31  32 0
 6-311+G(2d,p)
 ****
 33  34 0
 6-311+G(2d,p)
 ****
 1  2  14  15  16  17  18  19  20  21  22  24  25  26 0
 3-21G
 ****
 27  35  36  37  38  39  40  41  42  43  44  45 0
 3-21G
 ****


