%nproc=1
%NoSave
%Mem=1900MB
#P OB98/GEN NMR

erre ene a

0 1
  C     -240.935     -24.822     -68.114
  O     -240.150     -24.721     -66.936
  P     -238.587     -25.074     -66.964
  C     -237.159     -27.161     -67.426
  O     -238.475     -26.623     -67.369
  C     -237.074     -28.459     -66.626
  O     -237.241     -28.153     -65.219
  C     -238.144     -29.477     -66.999
  O     -237.586     -30.790     -66.911
  C     -239.197     -29.334     -65.915
  O     -239.945     -30.549     -65.752
  C     -238.338     -28.934     -64.711
  N     -242.084     -28.914     -61.201
  C     -241.580     -29.903     -61.974
  N     -240.604     -29.832     -62.904
  C     -240.094     -28.592     -62.957
  C     -240.498     -27.484     -62.230
  C     -241.549     -27.676     -61.315
  N     -242.049     -26.669     -60.517
  N     -239.758     -26.372     -62.580
  C     -238.913     -26.806     -63.485
  N     -239.066     -28.142     -63.741
  O     -237.834     -24.699     -65.735
  O     -238.028     -24.321     -68.258
  H     -240.630     -30.378     -65.072
  H     -237.139     -23.958     -68.082
  H     -242.030     -30.882     -61.830
  H     -238.178     -26.198     -63.995
  H     -237.923     -29.812     -64.203
  H     -239.901     -28.538     -66.189
  H     -238.556     -29.311     -68.003
  H     -236.069     -28.885     -66.753
  H     -236.468     -26.430     -66.999
  H     -242.714     -26.930     -59.809
  H     -241.539     -25.798     -60.478
  H     -236.881     -27.332     -68.472
  P     -237.896     -31.771     -68.154
  C     -239.840     -33.436     -68.638
  O     -239.321     -32.414     -67.814
  O     -236.769     -32.714     -68.416
  O     -238.173     -30.717     -69.324
  H     -238.475     -29.851     -68.964
  H     -240.831     -33.716     -68.273
  H     -239.193     -34.317     -68.598
  H     -239.927     -33.086     -69.672
  H     -241.945     -24.547     -67.894
  H     -240.910     -25.829     -68.474
  H     -240.541     -24.166     -68.862

 3  4  5  6  7  8  9  10  11  12  22  25  29  30  31  32 0
 6-311+G(2d,p)
 ****
 33  36  37 0
 6-311+G(2d,p)
 ****
 1  2  13  14  15  16  17  18  19  20  21  23  24  26 0
 3-21G
 ****
 27  28  34  35  38  39  40  41  42  43  44  45  46  47  48 0
 3-21G
 ****


