%nproc=1
%NoSave
%Mem=1900MB
#P OB98/GEN NMR

erre ene a

0 1
  C      122.054    -449.182     -89.879
  O      123.106    -449.864     -89.196
  P      122.682    -451.007     -88.154
  C      121.748    -451.090     -85.736
  O      122.411    -450.317     -86.723
  C      121.512    -450.280     -84.455
  O      122.734    -450.212     -83.656
  C      121.067    -448.839     -84.704
  O      120.182    -448.465     -83.644
  C      122.357    -448.052     -84.571
  O      122.101    -446.666     -84.327
  C      123.026    -448.812     -83.426
  N      126.654    -445.290     -82.671
  C      125.299    -445.222     -82.657
  N      124.398    -446.200     -82.891
  C      125.035    -447.370     -83.120
  C      126.397    -447.594     -83.177
  C      127.226    -446.488     -82.945
  N      128.604    -446.552     -82.985
  N      126.656    -448.920     -83.484
  C      125.473    -449.480     -83.618
  N      124.457    -448.589     -83.374
  O      124.046    -451.822     -87.922
  O      121.595    -451.902     -88.646
  H      121.834    -446.246     -85.175
  H      123.992    -452.688     -88.363
  H      124.880    -444.236     -82.431
  H      125.291    -450.503     -83.894
  H      122.623    -448.533     -82.441
  H      122.946    -448.137     -85.492
  H      120.580    -448.676     -85.675
  H      120.760    -450.803     -83.848
  H      122.337    -451.978     -85.492
  H      129.129    -445.701     -82.831
  H      129.047    -447.425     -83.233
  H      120.799    -451.465     -86.147
  P      118.626    -448.329     -84.017
  C      117.190    -446.385     -84.967
  O      118.476    -446.947     -84.828
  O      117.923    -448.018     -82.610
  O      118.048    -449.534     -84.683
  H      116.998    -448.304     -82.631
  H      117.269    -445.296     -84.852
  H      116.488    -446.769     -84.225
  H      116.810    -446.601     -85.967
  H      122.472    -448.451     -90.539
  H      121.421    -448.698     -89.165
  H      121.481    -449.886     -90.445

 3  4  5  6  7  8  9  10  11  12  22  25  29  30  31  32 0
 6-311+G(2d,p)
 ****
 33  36  37 0
 6-311+G(2d,p)
 ****
 1  2  13  14  15  16  17  18  19  20  21  23  24  26 0
 3-21G
 ****
 27  28  34  35  38  39  40  41  42  43  44  45  46  47  48 0
 3-21G
 ****


