%nproc=1
%NoSave
%Mem=1900MB
#P OB98/GEN NMR

erre ene a

0 1
  C     -897.400      64.534    -386.501
  O     -897.250      65.371    -385.376
  H     -896.410      64.245    -386.857
  H     -897.930      65.066    -387.299
  H     -897.960      63.630    -386.232
  P     -898.610      65.892    -384.689
  C     -898.210      65.471    -382.148
  O     -898.790      65.016    -383.358
  C     -897.030      64.580    -381.752
  O     -895.960      64.758    -382.727
  C     -896.430      64.916    -380.375
  O     -895.870      63.707    -379.833
  C     -895.310      65.871    -380.749
  O     -894.420      66.057    -379.669
  C     -894.790      65.174    -381.996
  N     -890.540      68.014    -382.172
  C     -891.060      67.234    -381.198
  N     -892.190      66.500    -381.231
  C     -892.780      66.598    -382.423
  C     -892.370      67.339    -383.517
  C     -891.180      68.083    -383.357
  N     -890.650      68.879    -384.345
  N     -893.250      67.200    -384.576
  C     -894.180      66.378    -384.134
  N     -893.950      65.999    -382.830
  O     -899.750      65.343    -385.668
  O     -898.700      67.367    -384.490
  H     -894.220      65.202    -379.231
  H     -900.000      66.037    -386.305
  H     -890.500      67.204    -380.270
  H     -895.050      66.040    -384.680
  H     -894.210      64.268    -381.747
  H     -895.720      66.862    -380.996
  H     -897.160      65.319    -379.668
  H     -897.340      63.530    -381.810
  H     -898.980      65.445    -381.364
  H     -897.860      66.502    -382.272
  H     -889.810      69.386    -384.141
  H     -891.140      68.954    -385.228
  P     -896.850      62.596    -379.199
  C     -896.400      60.508    -380.705
  O     -897.280      61.572    -380.353
  O     -898.200      63.440    -378.982
  O     -896.390      61.996    -377.907
  H     -898.700      63.055    -378.240
  H     -896.840      59.925    -381.487
  H     -896.230      59.888    -379.850
  H     -895.469      60.912    -381.043

 6  7  8  9  10  11  12  13  14  15  25  28  32  33  34  35 0
 6-311+G(2d,p)
 ****
 36  37  40 0
 6-311+G(2d,p)
 ****
 1  2  3  4  5  16  17  18  19  20  21  22  23  24 0
 3-21G
 ****
 26  27  29  30  31  38  39 41  42  43  44  45  46  47  48 0
 3-21G
 ****


