%nproc=1
%NoSave
%Mem=1900MB
#P OB98/GEN NMR

erre ene a

0 1
  C      -96.137      23.267     -66.254
  O      -96.539      22.810     -64.979
  H      -96.724      24.152     -66.510
  H      -96.323      22.496     -67.005
  H      -95.078      23.538     -66.255
  P      -95.696      21.643     -64.275
  C      -94.439      23.313     -62.766
  O      -94.329      22.303     -63.761
  C      -93.388      23.092     -61.683
  O      -93.383      24.200     -60.759
  C      -93.624      21.847     -60.834
  O      -93.260      20.677     -61.541
  C      -92.756      22.162     -59.625
  O      -91.376      21.876     -59.897
  C      -92.984      23.684     -59.470
  N      -93.972      24.017     -58.445
  C      -93.474      24.356     -57.191
  O      -92.275      24.346     -56.921
  N      -94.408      24.691     -56.248
  C      -95.763      24.638     -56.409
  O      -96.559      24.898     -55.513
  C      -96.232      24.240     -57.743
  C      -95.331      23.953     -58.684
  O      -95.528      20.392     -65.071
  O      -96.496      21.370     -62.915
  H      -91.033      22.627     -60.420
  H      -97.054      20.578     -63.015
  H      -94.067      24.927     -55.330
  H      -97.299      24.182     -57.907
  H      -95.658      23.652     -59.673
  H      -92.043      24.184     -59.210
  H      -93.030      21.578     -58.746
  H      -94.670      21.801     -60.512
  H      -92.403      23.052     -62.166
  H      -95.439      23.262     -62.322
  H      -94.308      24.291     -63.239
  P      -93.421      19.234     -60.871
  C      -95.946      19.326     -61.285
  O      -94.925      19.122     -60.318
  O      -92.366      18.870     -59.880
  O      -93.417      18.228     -62.114
  H      -92.565      17.751     -62.152
  H      -96.904      19.231     -60.818
  H      -95.853      18.595     -62.061
  H      -95.850      20.306     -61.704

 6  7  8  9  10  11  12  13  14  15  16  26  31  32  33  34  35 0
 6-311+G(2d,p)
 ****
 36  37 0
 6-311+G(2d,p)
 ****
 1  2  3  4  5  17  18  19  20  21  22  23  24  25 0
 3-21G
 ****
 27  28  29  30  38  39  40  41  42  43  44  45 0
 3-21G
 ****


