%nproc=1
%NoSave
%Mem=1900MB
#P OB98/GEN NMR

erre ene a

0 1
  C       -1.618    -893.610     257.063
  O       -0.390    -893.090     256.558
  P        0.858    -894.100     256.454
  C        2.258    -895.200     258.355
  O        1.581    -894.050     257.886
  C        2.511    -895.130     259.851
  O        1.273    -895.020     260.561
  C        3.254    -896.340     260.433
  O        4.623    -896.270     260.127
  C        2.915    -896.180     261.914
  O        3.877    -895.300     262.562
  C        1.519    -895.550     261.898
  N        0.476    -896.480     262.304
  C        0.304    -896.610     263.690
  O        1.042    -896.000     264.471
  N       -0.653    -897.500     264.150
  C       -1.363    -898.170     263.300
  N       -2.301    -899.020     263.796
  C       -1.221    -898.060     261.832
  C       -0.273    -897.200     261.407
  O        1.871    -893.330     255.501
  O        0.513    -895.470     255.959
  H        3.592    -895.240     263.483
  H        2.453    -893.960     255.029
  H       -1.828    -898.640     261.164
  H       -0.081    -897.060     260.354
  H        1.474    -894.660     262.563
  H        2.972    -897.140     262.433
  H        2.813    -897.260     260.047
  H        3.085    -894.180     260.045
  H       -2.385    -899.080     264.801
  H        3.214    -895.300     257.826
  H       -2.930    -899.570     263.227
  H        1.647    -896.090     258.116
  P        5.444    -897.650     260.075
  C        5.597    -899.510     261.815
  O        5.505    -898.130     261.607
  O        6.936    -897.140     259.813
  O        5.004    -898.660     259.077
  H        7.527    -897.900     259.678
  H        5.787    -899.700     262.870
  H        6.412    -899.950     261.230
  H        4.656    -900.000     261.555
  H       -2.355    -892.834     257.077
  H       -1.468    -893.977     258.057
  H       -1.952    -894.409     256.434

 3  4  5  6  7  8  9  10  11  12  13  21  23  27  28  29  30  32 0
 6-311+G(2d,p)
 ****
 34  35 0
 6-311+G(2d,p)
 ****
 1  2  14  15  16  17  18  19  20  22  24  25  26 0
 3-21G
 ****
 31  33  36  37  38  39  40  41  42  43  44  45  46 0
 3-21G
 ****


