%nproc=1
%NoSave
%Mem=1900MB
#P OB98/GEN NMR

erre ene a

0 1
  C       79.164     415.977    -304.267
  O       77.977     416.740    -304.363
  H       79.207     415.285    -305.113
  H       79.179     415.397    -303.338
  H       80.038     416.633    -304.309
  P       77.589     417.723    -303.160
  C       76.301     417.514    -300.934
  O       76.697     416.862    -302.139
  C       75.223     416.705    -300.211
  O       73.935     416.991    -300.826
  C       75.445     415.188    -300.269
  O       75.041     414.624    -299.017
  C       74.514     414.750    -301.378
  O       74.161     413.388    -301.259
  C       73.350     415.740    -301.235
  N       72.600     415.864    -302.485
  C       71.789     414.774    -302.835
  O       71.721     413.790    -302.100
  N       71.129     414.802    -304.040
  C       71.306     415.804    -304.849
  N       70.653     415.747    -306.040
  C       72.171     416.956    -304.530
  C       72.780     416.923    -303.344
  O       76.999     419.038    -303.547
  O       78.966     417.913    -302.364
  H       73.729     413.092    -302.089
  H       79.452     418.683    -302.715
  H       72.294     417.759    -305.242
  H       73.450     417.720    -303.031
  H       72.663     415.417    -300.440
  H       75.005     414.890    -302.353
  H       76.489     414.922    -300.482
  H       75.163     417.055    -299.174
  H       70.088     414.920    -306.224
  H       75.903     418.499    -301.202
  H       70.746     416.441    -306.768
  H       77.169     417.647    -300.286
  P       76.007     413.616    -298.221
  C       76.105     411.134    -297.593
  O       75.458     412.112    -298.398
  O       76.296     414.010    -296.805
  O       77.359     413.615    -299.091
  H       78.120     413.449    -298.500
  H       75.672     410.174    -297.781
  H       75.982     411.384    -296.560
  H       77.148     411.108    -297.832

 6  7  8  9  10  11  12  13  14  15  16  26  30  31  32  33  35 0
 6-311+G(2d,p)
 ****
 37  38 0
 6-311+G(2d,p)
 ****
 1  2  3  4  5  17  18  19  20  21  22  23  24  25 0
 3-21G
 ****
 27  28  29  34  36  39  40  41  42  43  44  45  46 0
 3-21G
 ****


