%nproc=1
%NoSave
%Mem=1900MB
#P OB98/GEN NMR

erre ene a

0 1
  C     -385.371    -228.421    -199.327
  O     -385.488    -227.482    -200.382
  H     -384.309    -228.567    -199.110
  H     -385.804    -229.385    -199.613
  H     -385.863    -228.040    -198.428
  P     -386.931    -227.285    -201.063
  C     -388.039    -225.303    -202.302
  O     -387.071    -225.707    -201.331
  C     -388.017    -223.785    -202.501
  O     -388.440    -223.118    -201.291
  C     -386.631    -223.230    -202.800
  O     -386.128    -223.587    -204.071
  C     -386.790    -221.758    -202.443
  O     -387.309    -220.965    -203.507
  C     -387.819    -221.812    -201.282
  N     -387.208    -221.514    -199.993
  C     -387.184    -220.169    -199.632
  O     -387.623    -219.265    -200.347
  N     -386.598    -219.882    -198.430
  C     -385.994    -220.781    -197.596
  O     -385.447    -220.459    -196.549
  C     -386.029    -222.190    -198.042
  C     -386.620    -222.487    -199.202
  O     -388.090    -227.878    -200.313
  O     -386.743    -227.885    -202.533
  H     -386.626    -220.936    -204.208
  H     -387.615    -228.070    -202.958
  H     -386.581    -218.914    -198.148
  H     -385.560    -222.933    -197.408
  H     -386.657    -223.517    -199.552
  H     -388.622    -221.086    -201.449
  H     -385.834    -221.310    -202.149
  H     -385.929    -223.651    -202.068
  H     -388.730    -223.531    -203.296
  H     -389.026    -225.604    -201.927
  H     -387.850    -225.819    -203.247
  P     -384.746    -223.037    -204.656
  C     -382.797    -224.038    -206.066
  O     -383.880    -224.294    -205.174
  O     -384.055    -221.976    -203.859
  O     -385.227    -222.363    -206.042
  H     -384.663    -221.582    -206.197
  H     -382.319    -224.961    -206.321
  H     -382.090    -223.390    -205.592
  H     -383.169    -223.572    -206.954

 6  7  8  9  10  11  12  13  14  15  16  26  31  32  33  34  35 0
 6-311+G(2d,p)
 ****
 36  37 0
 6-311+G(2d,p)
 ****
 1  2  3  4  5  17  18  19  20  21  22  23  24  25 0
 3-21G
 ****
 27  28  29  30  38  39  40  41  42  43  44  45 0
 3-21G
 ****


