%nproc=1
%NoSave
%Mem=1900MB
#P OB98/GEN NMR

erre ene a

0 1
  C     -125.945      64.874     150.731
  O     -125.692      63.784     151.596
  H     -125.716      65.803     151.261
  H     -126.998      64.886     150.433
  H     -125.309      64.804     149.843
  P     -126.077      62.324     151.039
  C     -128.426      61.292     150.562
  O     -127.658      62.220     151.316
  C     -129.470      60.630     151.459
  O     -128.841      59.702     152.373
  C     -130.253      61.600     152.344
  O     -131.269      62.304     151.646
  C     -130.830      60.622     153.353
  O     -131.914      59.889     152.747
  C     -129.612      59.711     153.607
  N     -128.779      60.167     154.730
  C     -128.451      59.212     155.697
  O     -128.851      58.053     155.600
  N     -127.703      59.602     156.784
  C     -127.297      60.830     156.886
  N     -126.561      61.156     157.985
  C     -127.608      61.867     155.882
  C     -128.343      61.470     154.844
  O     -125.461      61.335     152.139
  O     -125.662      62.026     149.637
  H     -132.195      59.221     153.399
  H     -125.770      60.410     151.969
  H     -127.258      62.880     156.021
  H     -128.612      62.178     154.066
  H     -129.926      58.677     153.806
  H     -131.233      61.107     154.243
  H     -129.585      62.297     152.868
  H     -130.144      60.050     150.812
  H     -126.415      60.441     158.682
  H     -127.748      60.536     150.152
  H     -126.329      62.112     158.229
  H     -128.931      61.804     149.737
  P     -131.298      63.903     151.806
  C     -131.042      65.331     153.973
  O     -131.657      64.212     153.339
  O     -132.624      64.324     151.022
  O     -130.084      64.611     151.278
  H     -132.513      65.187     150.586
  H     -131.383      65.400     154.985
  H     -131.302      66.226     153.447
  H     -129.979      65.207     153.963

 6  7  8  9  10  11  12  13  14  15  16  26  30  31  32  33  35 0
 6-311+G(2d,p)
 ****
 37  38 0
 6-311+G(2d,p)
 ****
 1  2  3  4  5  17  18  19  20  21  22  23  24  25 0
 3-21G
 ****
 27  28  29  34  36  39  40  41  42  43  44  45  46 0
 3-21G
 ****


