%nproc=1
%NoSave
%Mem=1900MB
#P OB98/GEN NMR

erre ene a

0 1
  C      511.783     735.469    -354.260
  O      511.375     734.569    -355.274
  P      512.342     733.340    -355.619
  C      510.265     731.956    -356.371
  O      511.577     732.405    -356.673
  C      510.025     730.584    -357.005
  O      511.179     729.738    -356.809
  C      508.848     729.826    -356.409
  O      507.615     730.297    -356.906
  C      509.170     728.389    -356.822
  O      508.729     728.126    -358.158
  C      510.709     728.374    -356.742
  N      511.195     727.687    -355.542
  C      511.036     726.311    -355.528
  O      510.494     725.682    -356.439
  N      511.481     725.669    -354.396
  C      512.017     726.262    -353.296
  O      512.342     725.638    -352.294
  C      512.128     727.736    -353.360
  C      511.720     728.362    -354.465
  O      512.342     732.463    -354.271
  O      513.723     733.729    -356.025
  H      509.254     728.705    -358.753
  H      513.229     732.073    -354.132
  H      511.404     724.663    -354.377
  H      512.548     728.239    -352.500
  H      511.785     729.443    -354.522
  H      511.117     727.862    -357.617
  H      508.676     727.662    -356.176
  H      508.878     729.903    -355.315
  H      509.891     730.722    -358.085
  H      509.538     732.671    -356.762
  H      510.140     731.902    -355.284
  P      506.407     730.458    -355.870
  C      505.820     732.722    -357.028
  O      505.378     731.465    -356.568
  O      507.124     731.314    -354.715
  O      505.859     729.148    -355.410
  H      507.795     731.926    -355.074
  H      506.839     732.671    -357.426
  H      505.782     733.441    -356.209
  H      505.147     733.065    -357.829
  H      511.042     736.232    -354.141
  H      512.715     735.916    -354.534
  H      511.899     734.939    -353.338

 3  4  5  6  7  8  9  10  11  12  13  23  28  29  30  31  32 0
 6-311+G(2d,p)
 ****
 33  34 0
 6-311+G(2d,p)
 ****
 1  2  14  15  16  17  18  19  20  21  22  24  25  26 0
 3-21G
 ****
 27  35  36  37  38  39  40  41  42  43  44  45 0
 3-21G
 ****


