%nproc=1
%NoSave
%Mem=1900MB
#P OB98/GEN NMR

erre ene a

0 1
  C      545.493     217.590     134.010
  O      544.700     217.277     132.883
  H      544.831     217.842     134.843
  H      546.146     218.446     133.807
  H      546.097     216.722     134.296
  P      545.433     217.142     131.458
  C      543.719     218.734     130.365
  O      545.092     218.505     130.672
  C      543.386     218.287     128.942
  O      542.039     218.667     128.585
  C      544.263     218.920     127.868
  O      545.618     218.531     127.909
  C      543.448     218.666     126.613
  O      543.653     217.359     126.078
  C      542.002     218.802     127.149
  N      541.380     220.056     126.749
  C      540.744     220.054     125.503
  O      540.721     219.078     124.755
  N      540.164     221.232     125.126
  C      540.190     222.403     125.833
  O      539.664     223.431     125.428
  C      540.902     222.357     127.121
  C      541.450     221.204     127.511
  O      545.117     215.898     130.676
  O      546.985     217.305     131.811
  H      543.127     217.304     125.260
  H      547.554     216.999     131.059
  H      539.691     221.245     124.235
  H      540.952     223.261     127.701
  H      541.980     221.143     128.463
  H      541.381     217.980     126.774
  H      543.687     219.377     125.818
  H      544.262     220.006     128.028
  H      543.445     217.195     128.906
  H      543.529     219.805     130.466
  H      543.096     218.199     131.087
  P      546.807     219.496     128.367
  C      546.924     220.680     126.035
  O      546.780     220.813     127.445
  O      548.127     218.849     128.631
  O      546.245     220.057     129.770
  H      547.018     220.185     130.357
  H      546.883     221.647     125.580
  H      546.132     220.072     125.651
  H      547.865     220.221     125.814

 6  7  8  9  10  11  12  13  14  15  16  26  31  32  33  34  35 0
 6-311+G(2d,p)
 ****
 36  37 0
 6-311+G(2d,p)
 ****
 1  2  3  4  5  17  18  19  20  21  22  23  24  25 0
 3-21G
 ****
 27  28  29  30  38  39  40  41  42  43  44  45 0
 3-21G
 ****


