%nproc=1
%NoSave
%Mem=1900MB
#P OB98/GEN NMR

erre ene a

0 1
  C     1379.301      74.957    -150.656
  O     1379.438      75.311    -152.020
  H     1379.846      75.692    -150.047
  H     1379.727      73.974    -150.474
  H     1378.248      74.973    -150.365
  P     1378.735      74.339    -153.090
  C     1380.361      72.365    -152.657
  O     1379.913      73.363    -153.561
  C     1381.044      71.220    -153.401
  O     1380.073      70.479    -154.168
  C     1382.116      71.668    -154.383
  O     1383.345      71.889    -153.706
  C     1382.195      70.451    -155.299
  O     1383.008      69.431    -154.678
  C     1380.732      69.991    -155.359
  N     1377.733      68.581    -159.305
  C     1378.465      67.850    -158.417
  N     1379.279      68.295    -157.438
  C     1379.293      69.642    -157.396
  C     1378.634      70.520    -158.243
  C     1377.804      69.932    -159.225
  N     1377.069      70.672    -160.119
  N     1378.898      71.834    -157.897
  C     1379.676      71.736    -156.846
  N     1379.977      70.442    -156.535
  O     1377.956      75.018    -154.167
  O     1377.875      73.395    -152.114
  H     1383.148      68.734    -155.362
  H     1378.391      73.167    -151.312
  H     1378.376      66.782    -158.523
  H     1380.030      72.587    -156.267
  H     1380.658      68.892    -155.351
  H     1382.658      70.681    -156.263
  H     1381.808      72.543    -154.965
  H     1381.456      70.533    -152.645
  H     1379.510      71.986    -152.068
  H     1376.669      70.191    -160.910
  H     1377.218      71.685    -160.159
  H     1381.059      72.842    -151.954
  P     1383.898      73.379    -153.415
  C     1385.554      73.206    -155.387
  O     1385.394      73.368    -153.975
  O     1383.696      73.844    -152.013
  O     1383.114      74.282    -154.487
  H     1383.171      75.238    -154.219
  H     1386.596      73.216    -155.631
  H     1385.061      74.008    -155.896
  H     1385.125      72.274    -155.690

 6  7  8  9  10  11  12  13  14  15  25  28  32  33  34  35 0
 6-311+G(2d,p)
 ****
 36  39  40 0
 6-311+G(2d,p)
 ****
 1  2  3  4  5  16  17  18  19  20  21  22  23  24 0
 3-21G
 ****
 26  27  29  30  31  37  38  41  42  43  44  45  46  47 0
 3-21G
 ****
 48 0
 3-21G
 ****


