%nproc=1
%NoSave
%Mem=1900MB
#P OB98/GEN NMR

erre ene a

0 1
  C      229.958    -236.578     164.054
  O      230.402    -236.965     165.338
  H      230.429    -235.626     163.793
  H      228.873    -236.446     164.051
  H      230.243    -237.328     163.310
  P      229.840    -238.358     165.904
  C      227.946    -237.140     167.212
  O      228.288    -238.119     166.236
  C      226.430    -237.051     167.347
  O      225.847    -236.700     166.067
  C      225.768    -238.362     167.744
  O      225.888    -238.631     169.131
  C      224.334    -238.120     167.294
  O      223.597    -237.379     168.275
  C      224.524    -237.278     166.025
  N      221.487    -238.155     162.015
  C      221.428    -237.241     163.012
  N      222.286    -237.067     164.037
  C      223.303    -237.937     163.957
  C      223.501    -238.920     163.002
  C      222.532    -239.011     161.987
  N      222.579    -239.952     160.991
  N      224.643    -239.644     163.278
  C      225.136    -239.106     164.374
  N      224.363    -238.070     164.818
  O      230.527    -238.468     167.346
  O      230.134    -239.549     165.054
  H      222.736    -237.161     167.863
  H      231.295    -239.064     167.293
  H      220.569    -236.574     162.985
  H      226.032    -239.427     164.883
  H      223.806    -236.447     165.968
  H      223.812    -239.059     167.127
  H      226.185    -239.189     167.157
  H      226.188    -236.257     168.060
  H      228.341    -236.167     166.899
  H      228.405    -237.420     168.165
  H      221.816    -240.009     160.332
  H      223.292    -240.676     161.022
  P      226.262    -240.125     169.569
  C      223.753    -240.717     169.980
  O      224.970    -241.036     169.312
  O      226.356    -240.038     171.165
  O      227.522    -240.653     168.967
  H      227.060    -240.635     171.490
  H      222.997    -241.420     169.698
  H      223.443    -239.730     169.705
  H      223.905    -240.761     171.038

 6  7  8  9  10  11  12  13  14  15  25  28  32  33  34  35 0
 6-311+G(2d,p)
 ****
 36  37  40 0
 6-311+G(2d,p)
 ****
 1  2  3  4  5  16  17  18  19  20  21  22  23  24 0
 3-21G
 ****
 26  27  29  30  31  38  39 41  42  43  44  45  46  47  48 0
 3-21G
 ****


