%nproc=1
%NoSave
%Mem=1900MB
#P OB98/GEN NMR

erre ene a

0 1
  C       82.230      34.327    -715.317
  O       82.553      33.924    -713.989
  P       81.622      32.770    -713.363
  C       79.130      32.534    -712.684
  O       80.109      33.312    -713.358
  C       77.964      33.411    -712.219
  O       78.373      34.269    -711.108
  C       77.403      34.340    -713.315
  O       75.992      34.447    -713.094
  C       78.091      35.657    -713.001
  O       77.484      36.774    -713.637
  C       78.030      35.632    -711.476
  N       78.821      40.580    -710.513
  C       77.846      39.932    -711.191
  N       77.714      38.614    -711.405
  C       78.719      37.934    -710.831
  C       79.793      38.444    -710.118
  C       79.826      39.843    -709.962
  N       80.829      40.517    -709.296
  N       80.634      37.432    -709.703
  C       80.115      36.326    -710.220
  N       78.920      36.578    -710.844
  O       82.033      32.751    -711.814
  O       81.802      31.440    -714.016
  H       77.296      36.558    -714.574
  H       82.667      32.026    -711.633
  H       77.080      40.565    -711.625
  H       80.564      35.352    -710.189
  H       77.021      35.828    -711.095
  H       79.131      35.607    -713.349
  H       77.580      33.973    -714.338
  H       77.161      32.752    -711.844
  H       79.573      32.031    -711.813
  H       80.768      41.514    -709.237
  H       81.585      40.008    -708.874
  H       78.779      31.740    -713.362
  P       75.002      34.308    -714.349
  C       72.840      35.526    -715.048
  O       73.940      35.513    -714.152
  O       74.121      33.053    -713.909
  O       75.643      34.168    -715.694
  H       73.794      33.145    -712.998
  H       72.166      36.329    -714.758
  H       72.300      34.569    -715.003
  H       73.197      35.723    -716.067
  H       82.907      35.093    -715.632
  H       81.229      34.704    -715.342
  H       82.312      33.487    -715.974

 3  4  5  6  7  8  9  10  11  12  22  25  29  30  31  32 0
 6-311+G(2d,p)
 ****
 33  36  37 0
 6-311+G(2d,p)
 ****
 1  2  13  14  15  16  17  18  19  20  21  23  24  26 0
 3-21G
 ****
 27  28  34  35  38  39  40  41  42  43  44  45  46  47  48 0
 3-21G
 ****


