%nproc=1
%NoSave
%Mem=1900MB
#P OB98/GEN NMR

erre ene a

0 1
  C     -648.262    -909.275    -893.700
  O     -646.893    -909.686    -893.830
  P     -646.288    -910.621    -892.670
  C     -645.752    -912.604    -894.270
  O     -645.243    -911.651    -893.340
  C     -644.684    -912.953    -895.300
  O     -644.680    -912.021    -896.400
  C     -643.246    -912.925    -894.750
  O     -642.902    -914.126    -894.060
  C     -642.440    -912.801    -896.030
  O     -642.318    -914.102    -896.660
  C     -643.323    -911.872    -896.890
  N     -640.373    -908.240    -898.940
  C     -640.484    -909.571    -899.210
  N     -641.290    -910.479    -898.600
  C     -642.017    -909.895    -897.640
  C     -642.000    -908.556    -897.260
  C     -641.116    -907.716    -897.960
  N     -641.025    -906.357    -897.690
  N     -642.908    -908.328    -896.230
  C     -643.455    -909.501    -896.020
  N     -642.951    -910.467    -896.830
  O     -647.519    -911.558    -892.270
  O     -645.769    -909.859    -891.490
  H     -643.211    -914.514    -896.670
  H     -647.495    -911.749    -891.320
  H     -639.846    -909.945    -900.000
  H     -644.221    -909.713    -895.280
  H     -643.322    -912.181    -897.950
  H     -641.421    -912.441    -895.870
  H     -643.089    -912.035    -894.120
  H     -644.880    -913.955    -895.680
  H     -646.629    -912.240    -894.760
  H     -640.400    -905.796    -898.250
  H     -641.611    -905.952    -896.980
  H     -646.044    -913.513    -893.680
  P     -641.532    -914.158    -893.250
  C     -642.387    -914.771    -890.890
  O     -641.746    -915.201    -892.060
  O     -641.510    -912.748    -892.510
  O     -640.319    -914.357    -894.090
  H     -640.585    -912.416    -892.380
  H     -642.721    -915.662    -890.310
  H     -643.277    -914.165    -891.110
  H     -641.695    -914.190    -890.260
  H     -648.531    -908.662    -894.535
  H     -648.383    -908.718    -892.795
  H     -648.893    -910.139    -893.674

 3  4  5  6  7  8  9  10  11  12  22  25  29  30  31  32 0
 6-311+G(2d,p)
 ****
 33  36  37 0
 6-311+G(2d,p)
 ****
 1  2  13  14  15  16  17  18  19  20  21  23  24  26 0
 3-21G
 ****
 27  28  34  35  38  39  40  41  42  43  44  45  46  47  48 0
 3-21G
 ****


