%nproc=1
%NoSave
%Mem=1900MB
#P OB98/GEN NMR

erre ene a

0 1
  C      -55.109      35.436     175.182
  O      -55.991      36.515     175.416
  H      -55.071      34.818     176.081
  H      -54.101      35.801     174.965
  H      -55.471      34.824     174.353
  P      -56.133      37.643     174.281
  C      -54.278      38.872     175.607
  O      -54.736      38.437     174.336
  C      -54.778      40.286     175.894
  O      -54.349      40.733     177.196
  C      -54.266      41.353     174.931
  O      -54.886      41.306     173.656
  C      -54.631      42.607     175.709
  O      -56.045      42.850     175.596
  C      -54.256      42.186     177.151
  N      -52.917      42.624     177.543
  C      -52.695      44.007     177.571
  O      -53.596      44.792     177.277
  N      -51.442      44.470     177.897
  C      -50.491      43.627     178.154
  N      -49.257      44.137     178.424
  C      -50.686      42.164     178.152
  C      -51.907      41.735     177.838
  O      -57.359      38.497     174.348
  O      -55.992      36.840     172.903
  H      -56.241      43.647     176.121
  H      -56.086      37.494     172.167
  H      -49.858      41.505     178.366
  H      -52.124      40.674     177.799
  H      -54.982      42.577     177.873
  H      -54.119      43.504     175.349
  H      -53.176      41.305     174.836
  H      -55.874      40.252     175.911
  H      -49.150      45.140     178.375
  H      -53.184      38.834     175.607
  H      -48.424      43.561     178.359
  H      -54.656      38.208     176.391
  P      -53.937      41.314     172.359
  C      -54.325      43.787     171.634
  O      -53.430      42.826     172.170
  O      -54.973      41.108     171.159
  O      -52.839      40.296     172.352
  H      -55.050      40.166     170.919
  H      -53.835      44.736     171.574
  H      -55.183      43.868     172.268
  H      -54.632      43.482     170.656

 6  7  8  9  10  11  12  13  14  15  16  26  30  31  32  33  35 0
 6-311+G(2d,p)
 ****
 37  38 0
 6-311+G(2d,p)
 ****
 1  2  3  4  5  17  18  19  20  21  22  23  24  25 0
 3-21G
 ****
 27  28  29  34  36  39  40  41  42  43  44  45  46 0
 3-21G
 ****


