%nproc=1
%NoSave
%Mem=1900MB
#P OB98/GEN NMR

erre ene a

0 1
  C      -93.089      38.098     418.170
  O      -92.982      37.937     419.568
  H      -93.645      39.018     417.967
  H      -93.631      37.259     417.729
  H      -92.097      38.183     417.718
  P      -92.261      36.624     420.141
  C      -90.139      38.003     420.649
  O      -91.131      37.123     421.167
  C      -89.621      38.925     421.759
  O      -90.686      39.853     422.095
  C      -89.230      38.158     423.029
  O      -87.914      38.461     423.480
  C      -90.393      38.441     423.978
  O      -90.064      38.358     425.347
  C      -90.891      39.815     423.517
  N      -92.293      40.077     423.844
  C      -92.650      40.070     425.187
  O      -91.873      39.877     426.123
  N      -93.974      40.311     425.450
  C      -94.949      40.538     424.525
  O      -96.120      40.748     424.820
  C      -94.515      40.499     423.118
  C      -93.230      40.276     422.846
  O      -91.787      35.652     419.116
  O      -93.360      35.971     421.106
  H      -90.906      38.298     425.846
  H      -93.749      35.186     420.675
  H      -94.240      40.324     426.420
  H      -95.268      40.662     422.358
  H      -92.875      40.245     421.821
  H      -90.293      40.611     423.967
  H      -91.179      37.698     423.792
  H      -89.189      37.080     422.837
  H      -88.783      39.513     421.365
  H      -90.594      38.589     419.847
  H      -89.308      37.416     420.238
  P      -86.575      37.818     422.899
  C      -84.920      39.654     423.784
  O      -85.343      38.296     423.796
  O      -86.400      37.895     421.419
  O      -86.706      36.253     423.286
  H      -86.250      35.756     422.574
  H      -84.087      39.774     424.445
  H      -85.725      40.281     424.107
  H      -84.630      39.928     422.791

 6  7  8  9  10  11  12  13  14  15  16  26  31  32  33  34  35 0
 6-311+G(2d,p)
 ****
 36  37 0
 6-311+G(2d,p)
 ****
 1  2  3  4  5  17  18  19  20  21  22  23  24  25 0
 3-21G
 ****
 27  28  29  30  38  39  40  41  42  43  44  45 0
 3-21G
 ****


