%nproc=1
%NoSave
%Mem=1900MB
#P OB98/GEN NMR

erre ene a

0 1
  C     1156.755    -162.715    -889.390
  O     1157.260    -162.922    -890.690
  H     1157.547    -162.911    -888.670
  H     1155.907    -163.397    -889.180
  H     1156.432    -161.671    -889.270
  P     1156.243    -162.803    -891.930
  C     1155.795    -165.343    -891.780
  O     1155.239    -164.041    -891.820
  C     1154.795    -166.386    -892.320
  O     1153.971    -165.735    -893.320
  C     1155.459    -167.604    -893.000
  O     1154.598    -168.734    -892.830
  C     1155.507    -167.168    -894.460
  O     1155.772    -168.247    -895.290
  C     1154.124    -166.485    -894.570
  N     1154.014    -165.644    -895.740
  C     1153.381    -166.218    -896.860
  O     1152.966    -167.377    -896.800
  N     1153.273    -165.470    -898.000
  C     1153.805    -164.271    -898.070
  N     1153.668    -163.600    -899.230
  C     1154.543    -163.656    -896.930
  C     1154.606    -164.382    -895.820
  O     1156.878    -162.634    -893.280
  O     1155.322    -161.540    -891.540
  H     1156.554    -168.751    -894.980
  H     1155.579    -160.764    -892.100
  H     1154.992    -162.678    -897.020
  H     1155.113    -164.024    -894.940
  H     1153.321    -167.230    -894.600
  H     1156.298    -166.435    -894.610
  H     1156.455    -167.826    -892.560
  H     1154.134    -166.701    -891.500
  H     1153.178    -164.064    -900.000
  H     1156.021    -165.572    -890.730
  H     1154.058    -162.687    -899.390
  H     1156.727    -165.397    -892.350
  P     1154.850    -169.869    -891.730
  C     1155.676    -171.541    -893.510
  O     1155.974    -170.892    -892.280
  O     1153.605    -170.538    -891.230
  O     1155.589    -169.119    -890.500
  H     1155.359    -169.564    -889.680
  H     1156.484    -172.190    -893.776
  H     1155.541    -170.807    -894.277
  H     1154.779    -172.114    -893.403

 6  7  8  9  10  11  12  13  14  15  16  26  30  31  32  33  35 0
 6-311+G(2d,p)
 ****
 37  38 0
 6-311+G(2d,p)
 ****
 1  2  3  4  5  17  18  19  20  21  22  23  24  25 0
 3-21G
 ****
 27  28  29  34  36  39  40  41  42  43  44  45  46 0
 3-21G
 ****


