%nproc=1
%NoSave
%Mem=1900MB
#P OB98/GEN NMR

erre ene a

0 1
  C     -686.469     122.497    -891.120
  O     -685.070     122.775    -891.300
  P     -684.558     124.264    -891.610
  C     -683.639     123.718    -893.970
  O     -684.630     124.428    -893.200
  C     -683.928     123.851    -895.460
  O     -685.016     122.975    -895.810
  C     -684.366     125.259    -895.920
  O     -683.307     126.178    -896.160
  C     -685.052     124.926    -897.220
  O     -684.039     124.704    -898.260
  C     -685.764     123.601    -896.920
  N     -690.652     123.174    -898.390
  C     -689.481     122.869    -899.010
  N     -688.203     123.026    -898.560
  C     -688.231     123.518    -897.310
  C     -689.314     123.870    -896.530
  C     -690.599     123.699    -897.130
  N     -691.783     124.008    -896.480
  N     -688.949     124.392    -895.320
  C     -687.640     124.310    -895.340
  N     -687.168     123.783    -896.510
  O     -683.228     124.600    -891.000
  O     -685.741     125.219    -891.080
  H     -684.526     124.414    -899.060
  H     -685.413     126.132    -890.970
  H     -689.571     122.449    -900.000
  H     -686.989     124.610    -894.520
  H     -685.734     122.887    -897.740
  H     -685.715     125.725    -897.590
  H     -685.117     125.682    -895.220
  H     -683.021     123.551    -896.010
  H     -683.700     122.650    -893.690
  H     -692.648     123.677    -896.940
  H     -691.751     124.214    -895.510
  H     -682.644     124.085    -893.710
  P     -683.673     127.732    -896.310
  C     -682.594     127.983    -898.680
  O     -683.748     128.000    -897.880
  O     -682.819     128.647    -895.530
  O     -685.233     127.769    -895.880
  H     -685.850     127.296    -896.450
  H     -682.841     128.032    -899.740
  H     -682.003     127.065    -898.500
  H     -681.939     128.874    -898.450
  H     -686.603     121.454    -890.924
  H     -687.003     122.764    -892.008
  H     -686.842     123.066    -890.294

 3  4  5  6  7  8  9  10  11  12  22  25  29  30  31  32 0
 6-311+G(2d,p)
 ****
 33  36  37 0
 6-311+G(2d,p)
 ****
 1  2  13  14  15  16  17  18  19  20  21  23  24  26 0
 3-21G
 ****
 27  28  34  35  38  39  40  41  42  43  44  45  46  47  48 0
 3-21G
 ****


