%nproc=1
%NoSave
%Mem=1900MB
#P OB98/GEN NMR

erre ene a

0 1
  C     -401.983      60.843    -292.958
  O     -402.980      60.021    -293.540
  P     -402.602      59.244    -294.906
  C     -401.632      60.045    -297.175
  O     -402.342      60.405    -295.993
  C     -402.387      60.528    -298.412
  O     -402.546      61.968    -298.348
  C     -401.678      60.259    -299.738
  O     -401.876      58.930    -300.178
  C     -402.375      61.261    -300.661
  O     -403.631      60.714    -301.106
  C     -402.609      62.457    -299.707
  N     -401.405      66.664    -302.258
  C     -402.519      65.846    -302.377
  N     -403.439      66.211    -303.285
  N     -402.699      64.759    -301.661
  C     -401.703      64.533    -300.767
  C     -400.554      65.279    -300.560
  C     -400.335      66.443    -301.378
  O     -399.355      67.178    -301.382
  N     -399.781      64.732    -299.560
  C     -400.483      63.701    -299.130
  N     -401.645      63.518    -299.873
  O     -403.992      58.610    -295.361
  O     -401.522      58.205    -294.769
  H     -404.236      60.768    -300.339
  H     -403.834      57.824    -295.919
  H     -401.321      67.505    -302.814
  H     -400.195      63.069    -298.292
  H     -403.627      62.873    -299.846
  H     -401.787      61.496    -301.536
  H     -403.433      67.109    -303.759
  H     -400.612      60.502    -299.669
  H     -404.280      65.652    -303.361
  H     -403.388      60.062    -298.408
  H     -401.541      58.941    -297.230
  H     -400.616      60.473    -297.137
  P     -400.718      58.293    -301.093
  C     -399.458      59.346    -303.128
  O     -400.691      59.183    -302.442
  O     -401.333      56.899    -301.554
  O     -399.407      58.128    -300.391
  H     -400.615      56.260    -301.757
  H     -398.845      58.441    -303.067
  H     -398.925      60.190    -302.678
  H     -399.681      59.568    -304.177
  H     -402.367      61.292    -292.066
  H     -401.703      61.609    -293.651
  H     -401.126      60.249    -292.718

 3  4  5  6  7  8  9  10  11  12  23  26  30  31  33  0
 6-311+G(2d,p)
 ****
 35  36  37  38 0
 6-311+G(2d,p)
 ****
 1  2  13  14  15  16  17  18  19  20  21  22  24  25  27  28  29 0
 3-21G
 ****
 32  34  39  40  41  42  43  44  45  46  47  48  49 0
 3-21G
 ****


