%nproc=1
%NoSave
%Mem=1900MB
#P OB98/GEN NMR

erre ene a

0 1
  C       19.764    -280.925      89.796
  O       19.390    -280.418      91.085
  P       18.152    -281.110      91.836
  C       17.108    -280.810      94.199
  O       17.763    -280.201      93.095
  C       16.500    -279.742      95.113
  O       17.491    -279.163      95.997
  C       15.889    -278.566      94.353
  O       14.567    -278.863      93.908
  C       15.839    -277.506      95.442
  O       14.701    -277.730      96.299
  C       17.142    -277.768      96.211
  N       18.521    -273.015      95.157
  C       17.312    -273.516      95.605
  N       16.328    -272.615      95.810
  N       17.088    -274.782      95.829
  C       18.171    -275.569      95.602
  C       19.417    -275.192      95.156
  C       19.648    -273.788      94.892
  O       20.690    -273.290      94.482
  N       20.252    -276.272      95.032
  C       19.518    -277.297      95.427
  N       18.240    -276.926      95.763
  O       18.822    -282.396      92.519
  O       17.020    -281.489      90.934
  H       14.639    -276.953      96.889
  H       18.155    -283.100      92.624
  H       18.633    -272.033      94.994
  H       19.863    -278.325      95.479
  H       17.033    -277.621      97.289
  H       15.737    -276.497      95.034
  H       16.445    -271.618      95.704
  H       16.537    -278.243      93.535
  H       15.445    -272.956      96.174
  H       15.723    -280.216      95.725
  H       17.815    -281.421      94.767
  H       16.350    -281.499      93.828
  P       14.385    -279.395      92.407
  C       12.375    -280.383      91.096
  O       12.817    -279.628      92.208
  O       14.996    -280.875      92.478
  O       15.064    -278.567      91.367
  H       15.393    -281.115      91.625
  H       11.304    -280.578      91.211
  H       12.901    -281.337      91.040
  H       12.533    -279.814      90.172
  H       20.598    -280.369      89.422
  H       18.939    -280.827      89.121
  H       20.033    -281.957      89.883

 3  4  5  6  7  8  9  10  11  12  23  26  30  31 0
 6-311+G(2d,p)
 ****
 33  35  36  37  38 0
 6-311+G(2d,p)
 ****
 1  2  13  14  15  16  17  18  19  20  21  22  24  25 0
 3-21G
 ****
 27  28  29  32  34  39  40  41  42  43  44  45  46  47  48  49 0
 3-21G
 ****


