%nproc=1
%NoSave
%Mem=1900MB
#P OB98/GEN NMR

erre ene a

0 1
  C       56.361    -188.257    -128.916
  O       56.213    -186.852    -128.920
  H       55.543    -188.693    -128.335
  H       57.310    -188.536    -128.447
  H       56.317    -188.654    -129.932
  P       57.211    -185.970    -129.816
  C       59.595    -185.078    -129.420
  O       58.674    -186.135    -129.181
  C       61.025    -185.581    -129.220
  O       61.355    -186.564    -130.227
  C       62.085    -184.490    -129.338
  O       62.111    -183.680    -128.182
  C       63.330    -185.334    -129.568
  O       63.818    -185.881    -128.330
  C       62.777    -186.456    -130.477
  N       63.043    -186.218    -131.896
  C       64.335    -186.492    -132.334
  O       65.227    -186.905    -131.590
  N       64.589    -186.224    -133.655
  C       63.718    -185.642    -134.534
  O       64.055    -185.222    -135.638
  C       62.347    -185.450    -134.037
  C       62.081    -185.725    -132.759
  O       56.784    -184.562    -130.068
  O       57.319    -186.804    -131.183
  H       56.746    -186.389    -131.860
  H       64.210    -185.134    -127.835
  H       65.537    -186.372    -133.970
  H       61.609    -185.047    -134.723
  H       61.083    -185.565    -132.364
  H       63.220    -187.423    -130.204
  H       64.148    -184.760    -130.007
  H       61.901    -183.881    -130.234
  H       61.078    -186.070    -128.237
  H       59.391    -184.267    -128.710
  H       59.455    -184.701    -130.437
  P       63.167    -182.486    -128.017
  C       65.592    -182.182    -127.245
  O       64.554    -183.119    -127.522
  O       62.690    -181.323    -127.212
  O       63.489    -182.045    -129.529
  H       63.353    -181.081    -129.612
  H       66.468    -182.705    -126.924
  H       65.273    -181.514    -126.473
  H       65.814    -181.624    -128.130

 6  7  8  9  10  11  12  13  14  15  16  27  31  32  33  34  35 0
 6-311+G(2d,p)
 ****
 36  37 0
 6-311+G(2d,p)
 ****
 1  2  3  4  5  17  18  19  20  21  22  23  24  25 0
 3-21G
 ****
 26  28  29  30  38  39  40  41  42  43  44  45 0
 3-21G
 ****


