%nproc=1
%NoSave
%Mem=1900MB
#P OB98/GEN NMR

erre ene a

0 1
  C      123.771      24.208    -109.414
  O      123.699      24.567    -108.032
  P      124.416      23.561    -107.006
  C      126.894      23.339    -107.749
  O      125.960      23.996    -106.901
  C      128.207      24.126    -107.833
  O      127.956      25.515    -108.204
  C      128.999      24.148    -106.512
  O      130.389      24.130    -106.864
  C      128.606      25.500    -105.931
  O      129.473      25.936    -104.895
  C      128.603      26.338    -107.205
  N      127.866      30.917    -109.337
  C      128.617      29.859    -109.707
  N      128.763      28.670    -109.080
  C      128.022      28.635    -107.960
  C      127.208      29.637    -107.447
  C      127.142      30.830    -108.192
  N      126.397      31.923    -107.810
  N      126.626      29.233    -106.255
  C      127.146      28.039    -106.024
  N      127.922      27.607    -107.061
  O      124.462      22.176    -107.808
  O      123.709      23.434    -105.696
  H      129.474      25.279    -104.168
  H      123.736      21.592    -107.521
  H      129.178      29.983    -110.631
  H      126.990      27.449    -105.128
  H      129.616      26.554    -107.563
  H      127.596      25.433    -105.509
  H      128.782      23.302    -105.855
  H      128.825      23.682    -108.626
  H      126.476      23.233    -108.753
  H      126.417      32.736    -108.407
  H      125.854      31.898    -106.957
  H      127.061      22.321    -107.376
  P      131.206      22.758    -106.716
  C      131.483      22.385    -109.242
  O      132.138      22.699    -108.025
  O      130.063      21.693    -107.096
  O      131.856      22.512    -105.395
  H      129.618      21.940    -107.927
  H      132.207      22.456    -110.058
  H      130.667      23.089    -109.427
  H      131.096      21.362    -109.204
  H      123.263      24.945    -110.001
  H      123.307      23.255    -109.559
  H      124.796      24.156    -109.716

 3  4  5  6  7  8  9  10  11  12  22  25  29  30  31  32 0
 6-311+G(2d,p)
 ****
 33  36  37 0
 6-311+G(2d,p)
 ****
 1  2  13  14  15  16  17  18  19  20  21  23  24  26 0
 3-21G
 ****
 27  28  34  35  38  39  40  41  42  43  44  45  46  47  48 0
 3-21G
 ****


