%nproc=1
%NoSave
%Mem=1900MB
#P OB98/GEN NMR

erre ene a

0 1
  C       80.081     -22.588     -81.365
  O       78.931     -23.155     -80.772
  H       80.963     -22.914     -80.807
  H       80.028     -21.497     -81.333
  H       80.173     -22.926     -82.401
  P       77.511     -22.719     -81.377
  C       75.964     -20.642     -81.156
  O       77.232     -21.222     -80.878
  C       75.850     -19.297     -80.445
  O       75.777     -19.504     -79.014
  C       77.046     -18.379     -80.659
  O       77.014     -17.719     -81.913
  C       76.882     -17.417     -79.495
  O       75.971     -16.355     -79.808
  C       76.320     -18.325     -78.385
  N       77.336     -18.654     -77.388
  C       77.309     -17.888     -76.225
  O       76.491     -16.991     -76.025
  N       78.284     -18.164     -75.307
  C       79.291     -19.072     -75.458
  O       80.168     -19.230     -74.617
  C       79.280     -19.840     -76.713
  C       78.320     -19.596     -77.610
  O       76.471     -23.600     -80.540
  O       77.365     -22.926     -82.848
  H       76.121     -24.318     -81.099
  H       75.092     -16.772     -79.900
  H       78.280     -17.623     -74.456
  H       80.066     -20.568     -76.866
  H       78.297     -20.140     -78.549
  H       75.486     -17.831     -77.872
  H       77.833     -16.959     -79.231
  H       77.982     -18.938     -80.531
  H       74.924     -18.806     -80.772
  H       75.170     -21.303     -80.794
  H       75.855     -20.524     -82.240
  P       78.348     -17.741     -82.805
  C       80.750     -16.742     -82.407
  O       79.366     -16.729     -82.091
  O       77.844     -16.961     -84.107
  O       78.866     -19.116     -83.050
  H       77.121     -16.343     -83.901
  H       81.255     -15.997     -81.828
  H       80.880     -16.533     -83.448
  H       81.158     -17.705     -82.183

 6  7  8  9  10  11  12  13  14  15  16  27  31  32  33  34  35 0
 6-311+G(2d,p)
 ****
 36  37 0
 6-311+G(2d,p)
 ****
 1  2  3  4  5  17  18  19  20  21  22  23  24  25 0
 3-21G
 ****
 26  28  29  30  38  39  40  41  42  43  44  45 0
 3-21G
 ****


