%nproc=1
%NoSave
%Mem=1900MB
#P OB98/GEN NMR

erre ene a

0 1
  C      102.234      45.638     105.771
  O      102.543      46.519     106.831
  H      102.821      45.924     104.895
  H      101.173      45.713     105.523
  H      102.483      44.607     106.040
  P      101.942      46.150     108.273
  C      100.169      47.972     108.796
  O      100.425      46.673     108.282
  C      100.626      49.032     107.799
  O      100.350      48.605     106.447
  C       99.942      50.385     107.966
  O      100.552      51.164     108.985
  C      100.184      50.991     106.593
  O      101.544      51.460     106.501
  C       99.977      49.780     105.674
  N       96.822      50.511     101.774
  C       98.164      50.816     101.900
  N       98.748      51.411     100.837
  N       98.872      50.567     102.972
  C       98.154      49.981     103.959
  C       96.823      49.628     103.953
  C       96.056      49.902     102.760
  O       94.871      49.631     102.587
  N       96.454      49.044     105.135
  C       97.553      49.061     105.864
  N       98.612      49.626     105.198
  O      102.689      47.170     109.259
  O      102.139      44.737     108.705
  H      101.636      52.185     107.146
  H      102.855      46.721     110.109
  H       96.323      50.734     100.932
  H       97.634      48.677     106.871
  H      100.623      49.811     104.790
  H       99.536      51.844     106.389
  H       98.250      51.675     100.002
  H       98.864      50.273     108.130
  H       99.738      51.614     100.893
  H      101.715      49.137     107.894
  H      100.715      48.100     109.736
  H       99.097      48.074     108.989
  P       99.605      52.136     109.846
  C       99.706      54.682     109.341
  O       99.301      53.393     108.896
  O      100.605      52.735     110.942
  O       98.420      51.477     110.464
  H      100.102      53.038     111.722
  H       99.438      55.413     108.607
  H      100.766      54.693     109.484
  H       99.219      54.909     110.266

 6  7  8  9  10  11  12  13  14  15  26  29  33  34 0
 6-311+G(2d,p)
 ****
 36  38  39  40  41 0
 6-311+G(2d,p)
 ****
 1  2  3  4  5  16  17  18  19  20  21  22  23  24  25 0
 3-21G
 ****
 27  28  30  31  32  35  37  42  43  44  45  46  47 0
 3-21G
 ****
 48  49 0
 3-21G
 ****


