%nproc=1
%NoSave
%Mem=1900MB
#P OB98/GEN NMR

erre ene a

0 1
  C     -148.016     -75.296    -203.444
  O     -147.785     -74.141    -202.663
  H     -149.057     -75.287    -203.779
  H     -147.852     -76.195    -202.846
  H     -147.367     -75.307    -204.324
  P     -146.302     -73.855    -202.127
  C     -146.237     -71.285    -202.088
  O     -146.364     -72.469    -201.316
  C     -147.298     -70.261    -201.682
  O     -148.592     -70.720    -202.150
  C     -147.393     -70.045    -200.167
  O     -147.653     -68.661    -199.925
  C     -148.604     -70.868    -199.771
  O     -149.231     -70.374    -198.588
  C     -149.481     -70.759    -201.017
  N     -153.536     -72.944    -198.944
  C     -152.903     -71.758    -198.628
  N     -153.408     -71.056    -197.591
  N     -151.864     -71.297    -199.273
  C     -151.472     -72.094    -200.298
  C     -152.012     -73.291    -200.707
  C     -153.155     -73.796    -199.976
  O     -153.748     -74.844    -200.200
  N     -151.316     -73.812    -201.770
  C     -150.358     -72.934    -201.998
  N     -150.402     -71.879    -201.126
  O     -145.223     -73.917    -203.159
  O     -146.089     -74.944    -200.977
  H     -149.988     -70.969    -198.395
  H     -145.561     -75.695    -201.307
  H     -154.327     -73.255    -198.408
  H     -149.606     -73.017    -202.773
  H     -150.089     -69.845    -201.021
  H     -148.302     -71.907    -199.591
  H     -154.217     -71.338    -197.060
  H     -146.491     -70.354    -199.632
  H     -152.975     -70.169    -197.358
  H     -147.087     -69.320    -202.202
  H     -146.364     -71.548    -203.144
  H     -145.235     -70.864    -201.946
  P     -146.519     -67.776    -199.220
  C     -146.451     -65.540    -200.499
  O     -146.933     -66.233    -199.352
  O     -145.114     -68.094    -199.612
  O     -146.762     -68.067    -197.660
  H     -145.908     -67.994    -197.190
  H     -146.792     -64.526    -200.473
  H     -146.817     -66.017    -201.384
  H     -145.381     -65.556    -200.502

 6  7  8  9  10  11  12  13  14  15  26  29  33  34 0
 6-311+G(2d,p)
 ****
 36  38  39  40  41 0
 6-311+G(2d,p)
 ****
 1  2  3  4  5  16  17  18  19  20  21  22  23  24  25 0
 3-21G
 ****
 27  28  30  31  32  35  37  42  43  44  45  46  47 0
 3-21G
 ****
 48  49 0
 3-21G
 ****


