%nproc=1
%NoSave
%Mem=1900MB
#P OB98/GEN NMR

erre ene a

0 1
  C       15.216     134.999      34.429
  O       16.284     134.606      33.566
  P       16.170     134.910      31.996
  C       14.603     132.954      31.399
  O       14.754     134.365      31.468
  C       13.225     132.580      30.835
  O       13.171     131.161      30.510
  C       12.088     132.857      31.829
  O       10.891     133.240      31.133
  C       11.845     131.496      32.451
  O       10.548     131.408      33.039
  C       12.070     130.588      31.244
  N       10.099     125.919      31.984
  C        9.545     127.067      31.533
  N       10.136     128.264      31.340
  C       11.443     128.204      31.651
  C       12.147     127.104      32.112
  C       11.418     125.916      32.287
  N       11.975     124.755      32.774
  N       13.474     127.424      32.331
  C       13.555     128.708      32.050
  N       12.363     129.217      31.604
  O       17.347     134.510      31.173
  O       15.958     136.501      31.960
  H       10.486     130.543      33.482
  H       16.492     136.876      31.233
  H        8.484     127.017      31.302
  H       14.440     129.317      32.165
  H       11.199     130.577      30.577
  H       12.590     131.308      33.233
  H       12.316     133.620      32.581
  H       13.062     133.128      29.901
  H       14.725     132.522      32.396
  H       11.350     123.989      32.975
  H       12.915     124.782      33.142
  H       15.411     132.536      30.789
  P       10.413     134.765      31.339
  C       10.574     134.667      33.947
  O       11.036     135.229      32.739
  O        8.940     134.955      31.175
  O       11.286     135.535      30.241
  H       12.236     135.334      30.262
  H       11.208     135.019      34.764
  H       10.624     133.575      33.913
  H        9.545     134.985      34.140
  H       15.451     134.724      35.436
  H       14.314     134.509      34.127
  H       15.082     136.059      34.371

 3  4  5  6  7  8  9  10  11  12  22  25  29  30  31  32 0
 6-311+G(2d,p)
 ****
 33  36  37 0
 6-311+G(2d,p)
 ****
 1  2  13  14  15  16  17  18  19  20  21  23  24  26 0
 3-21G
 ****
 27  28  34  35  38  39  40  41  42  43  44  45  46  47  48 0
 3-21G
 ****


