%nproc=1
%NoSave
%Mem=1900MB
#P OB98/GEN NMR

erre ene a

0 1
  C       52.133     -53.323    -185.563
  O       51.125     -54.204    -185.102
  P       50.083     -54.755    -186.198
  C       48.083     -56.415    -185.941
  O       49.396     -56.051    -185.552
  C       47.494     -57.391    -184.920
  O       48.295     -58.589    -184.851
  C       47.425     -56.842    -183.498
  O       46.280     -56.020    -183.339
  C       47.383     -58.124    -182.679
  O       46.050     -58.668    -182.645
  C       48.331     -59.040    -183.469
  N       51.954     -61.828    -181.310
  C       50.615     -62.112    -181.506
  N       50.190     -63.330    -181.108
  N       49.767     -61.274    -182.046
  C       50.329     -60.089    -182.383
  C       51.635     -59.687    -182.225
  C       52.571     -60.642    -181.675
  O       53.784     -60.480    -181.570
  N       51.823     -58.402    -182.664
  C       50.638     -58.040    -183.115
  N       49.701     -59.034    -182.987
  O       51.034     -55.342    -187.338
  O       49.115     -53.740    -186.717
  H       45.477     -58.084    -182.114
  H       51.133     -54.705    -188.068
  H       52.561     -62.522    -180.905
  H       50.416     -57.084    -183.560
  H       47.999     -60.083    -183.461
  H       47.678     -57.960    -181.640
  H       50.779     -64.017    -180.663
  H       48.338     -56.283    -183.263
  H       49.213     -63.552    -181.239
  H       46.495     -57.677    -185.266
  H       48.121     -56.901    -186.920
  H       47.466     -55.514    -186.015
  P       46.393     -54.793    -182.313
  C       45.672     -52.297    -182.316
  O       45.659     -53.541    -182.991
  O       47.944     -54.406    -182.367
  O       45.960     -55.109    -180.920
  H       48.242     -54.123    -181.481
  H       45.637     -51.496    -183.058
  H       46.573     -52.177    -181.704
  H       44.792     -52.228    -181.674
  H       52.755     -53.032    -184.742
  H       51.679     -52.454    -185.992
  H       52.727     -53.817    -186.303

 3  4  5  6  7  8  9  10  11  12  23  26  30  31 0
 6-311+G(2d,p)
 ****
 33  35  36  37  38 0
 6-311+G(2d,p)
 ****
 1  2  13  14  15  16  17  18  19  20  21  22  24  25 0
 3-21G
 ****
 27  28  29  32  34  39  40  41  42  43  44  45  46  47  48  49 0
 3-21G
 ****


