%nproc=1
%NoSave
%Mem=1900MB
#P OB98/GEN NMR

erre ene a

0 1
  C       25.226      28.209     -22.749
  O       24.185      28.844     -22.035
  H       25.670      27.441     -22.111
  H       26.000      28.933     -23.021
  H       24.827      27.734     -23.649
  P       23.435      30.049     -22.781
  C       21.645      28.412     -23.654
  O       21.903      29.572     -22.872
  C       20.186      27.983     -23.505
  O       19.972      27.539     -22.138
  C       19.184      29.108     -23.785
  O       18.028      28.557     -24.419
  C       18.808      29.591     -22.395
  O       17.546      30.250     -22.373
  C       18.868      28.287     -21.603
  N       16.476      29.728     -17.346
  C       16.019      29.402     -18.574
  N       16.730      29.003     -19.650
  C       18.037      28.902     -19.344
  C       18.649      29.198     -18.140
  C       17.806      29.642     -17.106
  N       18.263      30.010     -15.862
  N       20.014      29.013     -18.235
  C       20.220      28.600     -19.473
  N       19.055      28.538     -20.185
  O       24.041      30.487     -24.071
  O       23.380      31.165     -21.635
  H       17.372      30.555     -21.457
  H       23.086      30.789     -20.783
  H       14.944      29.479     -18.715
  H       21.186      28.353     -19.901
  H       17.955      27.687     -21.710
  H       19.562      30.300     -22.032
  H       19.597      29.907     -24.400
  H       20.004      27.117     -24.152
  H       22.302      27.593     -23.340
  H       17.588      30.314     -15.179
  H       19.250      29.948     -15.659
  H       21.867      28.654     -24.699
  P       17.378      29.330     -25.663
  C       19.321      29.200     -27.350
  O       18.015      28.750     -27.020
  O       17.360      30.818     -25.563
  O       15.887      28.740     -25.707
  H       15.261      29.468     -25.888
  H       19.633      28.747     -28.268
  H       20.000      28.928     -26.569
  H       19.314      30.264     -27.462

 6  7  8  9  10  11  12  13  14  15  25  28  32  33  34  35 0
 6-311+G(2d,p)
 ****
 36  39  40 0
 6-311+G(2d,p)
 ****
 1  2  3  4  5  16  17  18  19  20  21  22  23  24 0
 3-21G
 ****
 26  27  29  30  31  37  38  41  42  43  44  45  46  47 0
 3-21G
 ****
 48 0
 3-21G
 ****


