%nproc=1
%NoSave
%Mem=1900MB
#P OB98/GEN NMR

erre ene a

0 1
  C      -36.847    -890.192    -898.200
  O      -36.542    -891.449    -898.780
  H      -37.927    -890.091    -898.140
  H      -36.444    -889.390    -898.840
  H      -36.413    -890.121    -897.200
  P      -34.996    -891.889    -898.800
  C      -35.245    -893.893    -897.130
  O      -34.738    -892.593    -897.380
  C      -34.397    -894.590    -896.040
  O      -33.105    -894.936    -896.630
  C      -34.150    -893.731    -894.810
  O      -34.155    -894.585    -893.650
  C      -32.737    -893.181    -895.020
  O      -32.118    -892.837    -893.790
  C      -32.082    -894.345    -895.780
  N      -30.923    -893.907    -896.580
  C      -29.842    -893.389    -895.890
  O      -29.891    -893.277    -894.650
  N      -28.742    -892.941    -896.590
  C      -28.783    -892.945    -897.890
  N      -27.690    -892.470    -898.530
  C      -29.931    -893.448    -898.670
  C      -30.953    -893.918    -897.960
  O      -34.255    -890.477    -898.670
  O      -34.609    -892.694    -900.000
  H      -31.244    -892.456    -894.010
  H      -34.675    -889.877    -898.030
  H      -29.918    -893.414    -899.760
  H      -31.839    -894.309    -898.460
  H      -31.726    -895.121    -895.100
  H      -32.779    -892.299    -895.650
  H      -34.873    -892.925    -894.680
  H      -34.879    -895.537    -895.800
  H      -26.914    -892.124    -897.960
  H      -35.221    -894.499    -898.040
  H      -27.610    -892.388    -899.540
  H      -36.275    -893.797    -896.800
  P      -35.308    -894.354    -892.550
  C      -36.235    -896.763    -892.590
  O      -36.501    -895.384    -892.820
  O      -35.712    -892.956    -892.310
  O      -34.623    -894.989    -891.220
  H      -34.866    -894.411    -890.470
  H      -37.112    -897.337    -892.808
  H      -35.960    -896.907    -891.566
  H      -35.434    -897.082    -893.223

 6  7  8  9  10  11  12  13  14  15  16  26  30  31  32  33  35 0
 6-311+G(2d,p)
 ****
 37  38 0
 6-311+G(2d,p)
 ****
 1  2  3  4  5  17  18  19  20  21  22  23  24  25 0
 3-21G
 ****
 27  28  29  34  36  39  40  41  42  43  44  45  46 0
 3-21G
 ****


