%nproc=1
%NoSave
%Mem=1900MB
#P OB98/GEN NMR

erre ene a

0 1
  C     -394.511    -165.797     300.057
  O     -395.858    -166.108     299.731
  P     -397.004    -164.987     299.806
  C     -396.646    -164.009     297.452
  O     -396.527    -163.782     298.851
  C     -397.601    -162.993     296.826
  O     -397.101    -161.661     297.089
  C     -397.728    -163.140     295.307
  O     -399.075    -162.833     294.928
  C     -396.816    -162.051     294.742
  O     -397.245    -161.647     293.431
  C     -396.931    -160.973     295.830
  N     -394.934    -156.358     294.779
  C     -396.174    -156.861     294.590
  N     -396.625    -158.103     294.874
  C     -395.663    -158.847     295.447
  C     -394.353    -158.463     295.701
  C     -393.991    -157.157     295.333
  N     -392.730    -156.637     295.537
  N     -393.644    -159.502     296.272
  C     -394.515    -160.485     296.379
  N     -395.750    -160.131     295.903
  O     -397.390    -164.573     301.186
  O     -398.235    -165.619     299.006
  H     -396.907    -162.318     292.804
  H     -399.073    -165.384     299.443
  H     -396.900    -156.182     294.159
  H     -394.303    -161.467     296.787
  H     -397.809    -160.335     295.670
  H     -395.795    -162.439     294.669
  H     -397.451    -164.136     294.949
  H     -398.581    -163.084     297.303
  H     -397.043    -165.022     297.298
  H     -392.591    -155.650     295.356
  H     -392.078    -157.169     296.111
  H     -395.654    -163.951     296.988
  P     -399.685    -163.728     293.726
  C     -401.602    -164.629     295.242
  O     -400.464    -164.919     294.460
  O     -398.634    -164.110     292.725
  O     -400.828    -162.755     293.165
  H     -401.130    -162.127     293.858
  H     -401.971    -165.566     295.689
  H     -402.397    -164.212     294.617
  H     -401.348    -163.933     296.046
  H     -393.906    -166.672     299.945
  H     -394.459    -165.454     301.069
  H     -394.153    -165.030     299.402

 3  4  5  6  7  8  9  10  11  12  22  25  29  30  31  32 0
 6-311+G(2d,p)
 ****
 33  36  37 0
 6-311+G(2d,p)
 ****
 1  2  13  14  15  16  17  18  19  20  21  23  24  26 0
 3-21G
 ****
 27  28  34  35  38  39  40  41  42  43  44  45  46  47  48 0
 3-21G
 ****


