%nproc=1
%NoSave
%Mem=1900MB
#P OB98/GEN NMR

erre ene a

0 1
  C       65.190     117.524     -62.072
  O       66.413     117.894     -62.711
  P       67.323     116.699     -63.273
  C       67.503     115.318     -65.465
  O       66.865     116.384     -64.776
  C       66.678     114.910     -66.686
  O       65.397     114.363     -66.308
  C       66.356     116.075     -67.617
  O       67.492     116.448     -68.376
  C       65.212     115.485     -68.430
  O       65.721     114.615     -69.455
  C       64.461     114.655     -67.375
  N       59.367     115.072     -67.602
  C       60.241     114.299     -68.283
  N       61.585     114.249     -68.167
  C       62.011     115.102     -67.221
  C       61.239     115.952     -66.443
  C       59.854     115.921     -66.664
  N       58.966     116.721     -65.983
  N       62.035     116.682     -65.582
  C       63.266     116.296     -65.854
  N       63.301     115.336     -66.829
  O       66.816     115.428     -62.444
  O       68.789     116.927     -63.093
  H       64.954     114.287     -69.967
  H       67.495     115.160     -61.796
  H       59.803     113.633     -69.023
  H       64.157     116.686     -65.374
  H       64.113     113.693     -67.773
  H       64.598     116.245     -68.922
  H       65.999     116.935     -67.035
  H       67.236     114.141     -67.234
  H       67.630     114.457     -64.802
  H       57.995     116.694     -66.258
  H       59.322     117.417     -65.345
  H       68.509     115.638     -65.758
  P       68.154     117.880     -68.081
  C       69.004     118.900     -65.880
  O       68.793     117.705     -66.614
  O       66.864     118.778     -67.798
  O       69.080     118.376     -69.136
  H       66.233     118.330     -67.205
  H       69.403     118.636     -64.897
  H       68.059     119.436     -65.749
  H       69.723     119.533     -66.399
  H       64.678     118.405     -61.744
  H       65.403     116.900     -61.229
  H       64.573     116.990     -62.764

 3  4  5  6  7  8  9  10  11  12  22  25  29  30  31  32 0
 6-311+G(2d,p)
 ****
 33  36  37 0
 6-311+G(2d,p)
 ****
 1  2  13  14  15  16  17  18  19  20  21  23  24  26 0
 3-21G
 ****
 27  28  34  35  38  39  40  41  42  43  44  45  46  47  48 0
 3-21G
 ****


