%nproc=1
%NoSave
%Mem=1900MB
#P OB98/GEN NMR

erre ene a

0 1
  C      251.957    -266.450    -294.416
  O      252.878    -267.160    -293.610
  H      252.413    -265.508    -294.728
  H      251.051    -266.233    -293.845
  H      251.700    -267.031    -295.311
  P      252.513    -268.672    -293.228
  C      254.529    -270.041    -294.150
  O      253.911    -269.442    -293.017
  C      256.052    -269.990    -294.003
  O      256.497    -268.625    -294.290
  C      256.558    -270.344    -292.596
  O      257.801    -271.052    -292.729
  C      256.826    -268.990    -291.967
  O      257.766    -269.019    -290.900
  C      257.321    -268.203    -293.188
  N      257.237    -266.751    -292.993
  C      258.166    -266.164    -292.137
  O      259.102    -266.758    -291.598
  N      257.985    -264.822    -291.904
  C      256.983    -264.040    -292.407
  O      256.860    -262.845    -292.141
  C      256.028    -264.719    -293.298
  C      256.193    -266.021    -293.543
  O      251.967    -269.271    -294.609
  O      251.538    -268.841    -292.109
  H      251.002    -269.133    -294.686
  H      258.650    -269.191    -291.294
  H      258.650    -264.380    -291.282
  H      255.217    -264.133    -293.707
  H      255.494    -266.561    -294.183
  H      258.358    -268.476    -293.425
  H      255.888    -268.561    -291.586
  H      255.856    -270.942    -292.004
  H      256.502    -270.640    -294.760
  H      254.235    -269.500    -295.051
  H      254.192    -271.082    -294.238
  P      258.222    -272.038    -291.534
  C      258.614    -274.193    -292.989
  O      259.177    -273.143    -292.203
  O      256.841    -272.814    -291.268
  O      258.788    -271.319    -290.351
  H      256.331    -272.963    -292.089
  H      259.396    -274.828    -293.349
  H      258.085    -273.773    -293.819
  H      257.939    -274.765    -292.388

 6  7  8  9  10  11  12  13  14  15  16  27  31  32  33  34  35 0
 6-311+G(2d,p)
 ****
 36  37 0
 6-311+G(2d,p)
 ****
 1  2  3  4  5  17  18  19  20  21  22  23  24  25 0
 3-21G
 ****
 26  28  29  30  38  39  40  41  42  43  44  45 0
 3-21G
 ****


