%nproc=1
%NoSave
%Mem=1900MB
#P OB98/GEN NMR

erre ene a

0 1
  C     -326.912    -869.849     325.505
  O     -326.798    -870.317     326.839
  H     -327.260    -868.814     325.523
  H     -327.643    -870.457     324.959
  H     -325.942    -869.890     325.004
  P     -326.286    -871.827     327.023
  C     -324.131    -871.280     328.395
  O     -325.435    -871.839     328.382
  C     -323.742    -870.848     329.805
  O     -324.481    -869.630     330.142
  C     -324.070    -871.884     330.897
  O     -323.123    -871.713     331.962
  C     -325.451    -871.416     331.352
  O     -325.810    -872.024     332.572
  C     -325.214    -869.903     331.353
  N     -327.451    -865.701     333.231
  C     -326.182    -866.169     333.322
  N     -325.661    -867.280     332.790
  C     -326.586    -867.952     332.068
  C     -327.911    -867.602     331.881
  C     -328.349    -866.418     332.503
  N     -329.638    -865.950     332.420
  N     -328.558    -868.538     331.086
  C     -327.636    -869.435     330.804
  N     -326.433    -869.123     331.393
  O     -325.176    -871.980     325.878
  O     -327.339    -872.883     326.930
  H     -325.469    -872.941     332.616
  H     -325.567    -872.380     325.089
  H     -325.504    -865.557     333.912
  H     -327.782    -870.316     330.204
  H     -324.595    -869.595     332.206
  H     -326.217    -871.694     330.621
  H     -324.042    -872.908     330.532
  H     -322.686    -870.580     329.821
  H     -324.122    -870.420     327.718
  H     -323.413    -872.027     328.028
  H     -329.869    -865.099     332.905
  H     -330.319    -866.482     331.895
  P     -323.001    -872.865     333.081
  C     -320.477    -873.390     332.636
  O     -321.473    -872.961     333.560
  O     -323.165    -874.197     332.207
  O     -324.030    -872.826     334.177
  H     -323.545    -874.919     332.764
  H     -319.522    -873.396     333.118
  H     -320.452    -872.720     331.802
  H     -320.710    -874.377     332.293

 6  7  8  9  10  11  12  13  14  15  25  28  32  33  34  35 0
 6-311+G(2d,p)
 ****
 36  37  40 0
 6-311+G(2d,p)
 ****
 1  2  3  4  5  16  17  18  19  20  21  22  23  24 0
 3-21G
 ****
 26  27  29  30  31  38  39 41  42  43  44  45  46  47  48 0
 3-21G
 ****


