%nproc=1
%NoSave
%Mem=1900MB
#P OB98/GEN NMR

erre ene a

0 1
  C      139.840    -132.219    -597.023
  O      140.365    -132.952    -595.913
  P      140.826    -132.111    -594.628
  C      138.852    -132.974    -593.159
  O      139.546    -131.852    -593.701
  C      137.498    -132.535    -592.600
  O      136.736    -131.810    -593.581
  C      136.611    -133.705    -592.197
  O      137.022    -134.228    -590.950
  C      135.232    -133.059    -592.174
  O      134.926    -132.514    -590.874
  C      135.351    -131.934    -593.223
  N      134.517    -132.172    -594.394
  C      133.178    -131.793    -594.277
  O      132.755    -131.310    -593.221
  N      132.351    -131.990    -595.350
  C      132.807    -132.538    -596.431
  N      131.932    -132.716    -597.457
  C      134.208    -132.978    -596.580
  C      135.002    -132.763    -595.530
  O      141.149    -130.664    -595.226
  O      142.011    -132.689    -593.920
  H      134.054    -132.074    -590.978
  H      141.873    -130.243    -594.730
  H      134.544    -133.441    -597.499
  H      136.049    -133.056    -595.558
  H      135.055    -130.968    -592.787
  H      134.446    -133.790    -592.402
  H      136.645    -134.481    -592.970
  H      137.677    -131.880    -591.735
  H      130.978    -132.406    -597.318
  H      139.446    -133.442    -592.376
  H      132.181    -133.138    -598.335
  H      138.730    -133.725    -593.950
  P      137.868    -135.589    -590.957
  C      139.683    -134.572    -589.452
  O      139.386    -135.134    -590.718
  O      137.881    -135.971    -592.510
  O      137.369    -136.711    -590.112
  H      138.286    -136.847    -592.643
  H      140.769    -134.502    -589.347
  H      139.295    -135.201    -588.647
  H      139.261    -133.567    -589.383
  H      139.574    -132.899    -597.805
  H      140.581    -131.535    -597.381
  H      138.972    -131.675    -596.713

 3  4  5  6  7  8  9  10  11  12  13  21  23  27  28  29  30  32 0
 6-311+G(2d,p)
 ****
 34  35 0
 6-311+G(2d,p)
 ****
 1  2  14  15  16  17  18  19  20  22  24  25  26 0
 3-21G
 ****
 31  33  36  37  38  39  40  41  42  43  44  45  46 0
 3-21G
 ****


