%nproc=1
%NoSave
%Mem=1900MB
#P OB98/GEN NMR

erre ene a

0 1
  C     -163.625     -78.109      62.820
  O     -164.165     -78.716      61.661
  H     -163.228     -77.125      62.552
  H     -162.807     -78.709      63.230
  H     -164.402     -77.984      63.577
  P     -164.667     -80.233      61.758
  C     -163.244     -80.763      59.660
  O     -163.547     -81.104      61.007
  C     -161.749     -80.928      59.398
  O     -160.985     -80.129      60.327
  C     -161.256     -82.361      59.586
  O     -161.633     -83.166      58.491
  C     -159.769     -82.133      59.761
  O     -159.122     -81.941      58.499
  C     -159.753     -80.830      60.597
  N     -159.592     -81.076      62.025
  C     -158.295     -81.390      62.454
  O     -157.367     -81.437      61.642
  N     -158.099     -81.662      63.789
  C     -159.091     -81.614      64.618
  N     -158.825     -81.892      65.918
  C     -160.468     -81.269      64.212
  C     -160.645     -81.023      62.915
  O     -166.065     -80.511      61.314
  O     -164.440     -80.606      63.301
  H     -159.132     -82.812      58.058
  H     -165.234     -80.389      63.825
  H     -161.265     -81.236      64.938
  H     -161.628     -80.767      62.529
  H     -158.938     -80.174      60.264
  H     -159.294     -82.980      60.252
  H     -161.655     -82.770      60.526
  H     -161.530     -80.570      58.383
  H     -157.864     -82.128      66.156
  H     -163.539     -79.714      59.512
  H     -159.496     -81.797      66.668
  H     -163.817     -81.384      58.961
  P     -162.801     -84.262      58.644
  C     -160.835     -85.933      58.531
  O     -162.069     -85.594      59.166
  O     -163.670     -84.432      57.441
  O     -163.602     -83.761      59.939
  H     -164.153     -82.967      59.740
  H     -160.448     -86.833      58.962
  H     -160.132     -85.139      58.671
  H     -161.001     -86.082      57.485

 6  7  8  9  10  11  12  13  14  15  16  26  30  31  32  33  35 0
 6-311+G(2d,p)
 ****
 37  38 0
 6-311+G(2d,p)
 ****
 1  2  3  4  5  17  18  19  20  21  22  23  24  25 0
 3-21G
 ****
 27  28  29  34  36  39  40  41  42  43  44  45  46 0
 3-21G
 ****


