%nproc=1
%NoSave
%Mem=1900MB
#P OB98/GEN NMR

erre ene a

0 1
  C     -382.462    -167.217     -90.230
  O     -381.377    -167.574     -91.069
  P     -380.518    -166.367     -91.701
  C     -382.350    -165.302     -93.231
  O     -381.567    -165.207     -92.052
  C     -382.594    -163.907     -93.803
  O     -382.864    -162.970     -92.742
  C     -381.420    -163.338     -94.587
  O     -381.408    -163.851     -95.905
  C     -381.698    -161.842     -94.511
  O     -382.678    -161.450     -95.491
  C     -382.253    -161.693     -93.086
  N     -378.925    -158.162     -91.661
  C     -379.661    -158.275     -92.828
  N     -379.519    -157.272     -93.721
  N     -380.463    -159.273     -93.090
  C     -380.496    -160.206     -92.110
  C     -379.805    -160.214     -90.922
  C     -378.960    -159.082     -90.621
  O     -378.368    -158.887     -89.566
  N     -380.077    -161.345     -90.190
  C     -380.956    -161.996     -90.926
  N     -381.260    -161.341     -92.090
  O     -380.081    -166.944     -93.126
  O     -379.352    -165.916     -90.874
  H     -382.863    -160.500     -95.391
  H     -379.166    -167.289     -93.091
  H     -378.337    -157.364     -91.511
  H     -381.413    -162.934     -90.649
  H     -383.044    -160.933     -93.030
  H     -380.803    -161.245     -94.704
  H     -378.904    -156.487     -93.603
  H     -380.474    -163.562     -94.073
  H     -380.049    -157.338     -94.589
  H     -383.491    -163.957     -94.441
  H     -383.310    -165.770     -92.989
  H     -381.830    -165.935     -93.959
  P     -379.983    -164.027     -96.621
  C     -380.302    -162.283     -98.521
  O     -379.627    -162.634     -97.322
  O     -380.302    -165.006     -97.845
  O     -378.915    -164.592     -95.738
  H     -379.545    -165.607     -97.992
  H     -380.373    -161.195     -98.573
  H     -381.307    -162.710     -98.553
  H     -379.724    -162.648     -99.375
  H     -382.947    -168.103     -89.878
  H     -383.160    -166.624     -90.783
  H     -382.098    -166.654     -89.396

 3  4  5  6  7  8  9  10  11  12  23  26  30  31 0
 6-311+G(2d,p)
 ****
 33  35  36  37  38 0
 6-311+G(2d,p)
 ****
 1  2  13  14  15  16  17  18  19  20  21  22  24  25 0
 3-21G
 ****
 27  28  29  32  34  39  40  41  42  43  44  45  46  47  48  49 0
 3-21G
 ****


