%nproc=1
%NoSave
%Mem=1900MB
#P OB98/GEN NMR

erre ene a

0 1
  C      309.964    -893.190     531.399
  O      310.979    -894.060     531.859
  H      309.500    -893.640     530.511
  H      310.391    -892.220     531.109
  H      309.204    -893.050     532.161
  P      311.822    -893.620     533.149
  C      310.098    -894.870     534.623
  O      310.747    -893.640     534.344
  C      310.935    -895.710     535.582
  O      311.282    -894.960     536.770
  C      310.252    -896.980     536.112
  O      310.144    -898.010     535.146
  C      311.184    -897.320     537.247
  O      312.387    -897.910     536.711
  C      311.460    -895.930     537.850
  N      310.571    -895.620     538.976
  C      310.844    -896.260     540.185
  O      311.766    -897.050     540.270
  N      310.023    -896.010     541.256
  C      309.002    -895.210     541.133
  N      308.236    -895.020     542.234
  C      308.674    -894.540     539.876
  C      309.499    -894.780     538.845
  O      312.617    -892.370     533.023
  O      312.713    -894.910     533.504
  H      312.715    -897.310     536.022
  H      313.265    -894.680     534.292
  H      307.796    -893.900     539.809
  H      309.316    -894.310     537.882
  H      312.500    -895.850     538.183
  H      310.761    -898.040     537.947
  H      309.248    -896.730     536.528
  H      311.884    -895.950     535.067
  H      308.483    -895.510     543.080
  H      309.933    -895.400     533.683
  H      307.375    -894.470     542.195
  H      309.121    -894.680     535.097
  P      308.660    -898.530     534.787
  C      308.905    -897.790     532.283
  O      308.196    -897.660     533.504
  O      307.779    -897.930     535.983
  O      308.520    -900.000     534.629
  H      307.617    -898.620     536.659
  H      308.468    -897.148     531.547
  H      308.854    -898.805     531.947
  H      309.928    -897.515     532.434

 6  7  8  9  10  11  12  13  14  15  16  26  30  31  32  33  35 0
 6-311+G(2d,p)
 ****
 37  38 0
 6-311+G(2d,p)
 ****
 1  2  3  4  5  17  18  19  20  21  22  23  24  25 0
 3-21G
 ****
 27  28  29  34  36  39  40  41  42  43  44  45  46 0
 3-21G
 ****


