%nproc=1
%NoSave
%Mem=1900MB
#P OB98/GEN NMR

erre ene a

0 1
  C       52.653    -389.853    -575.650
  O       52.837    -389.608    -577.029
  H       53.537    -389.499    -575.104
  H       52.529    -390.921    -575.464
  H       51.773    -389.313    -575.283
  P       51.688    -390.159    -578.009
  C       51.250    -387.839    -579.133
  O       51.763    -389.161    -579.271
  C       51.677    -386.999    -580.336
  O       53.074    -386.670    -580.261
  C       51.490    -387.691    -581.678
  O       50.142    -387.672    -582.128
  C       52.397    -386.844    -582.561
  O       51.732    -385.590    -582.852
  C       53.599    -386.628    -581.620
  N       54.647    -387.629    -581.800
  C       55.435    -387.517    -582.958
  O       55.227    -386.618    -583.772
  N       56.417    -388.452    -583.175
  C       56.615    -389.406    -582.314
  N       57.596    -390.320    -582.598
  C       55.823    -389.544    -581.079
  C       54.871    -388.640    -580.879
  O       50.326    -389.706    -577.290
  O       51.753    -391.614    -578.347
  H       51.419    -385.232    -582.000
  H       49.556    -389.886    -577.885
  H       56.028    -390.377    -580.398
  H       54.252    -388.681    -580.003
  H       54.041    -385.633    -581.764
  H       52.629    -387.310    -583.513
  H       51.880    -388.717    -581.663
  H       51.119    -386.042    -580.299
  H       58.078    -390.222    -583.483
  H       51.650    -387.408    -578.209
  H       57.706    -391.187    -582.084
  H       50.160    -387.861    -579.072
  P       49.588    -388.989    -582.881
  C       47.457    -388.951    -581.392
  O       47.994    -388.996    -582.704
  O       50.063    -390.187    -581.921
  O       50.075    -389.165    -584.282
  H       50.360    -390.955    -582.430
  H       46.388    -388.962    -581.443
  H       47.781    -388.055    -580.904
  H       47.796    -389.801    -580.838

 6  7  8  9  10  11  12  13  14  15  16  26  30  31  32  33  35 0
 6-311+G(2d,p)
 ****
 37  38 0
 6-311+G(2d,p)
 ****
 1  2  3  4  5  17  18  19  20  21  22  23  24  25 0
 3-21G
 ****
 27  28  29  34  36  39  40  41  42  43  44  45  46 0
 3-21G
 ****


