%nproc=1
%NoSave
%Mem=1900MB
#P OB98/GEN NMR

erre ene a

0 1
  C       88.693    -388.465      34.516
  O       89.627    -389.443      34.926
  H       88.290    -387.976      35.402
  H       87.876    -388.945      33.976
  H       89.171    -387.710      33.882
  P       90.587    -390.053      33.787
  C       89.762    -392.474      33.320
  O       90.653    -391.635      34.049
  C       90.207    -393.927      33.407
  O       91.524    -394.087      32.834
  C       90.294    -394.475      34.832
  O       89.024    -394.907      35.304
  C       91.235    -395.650      34.628
  O       90.510    -396.747      34.032
  C       92.244    -395.081      33.619
  N       96.256    -395.754      36.659
  C       95.233    -396.633      36.329
  N       95.287    -397.855      36.893
  N       94.249    -396.326      35.523
  C       94.316    -395.057      35.048
  C       95.270    -394.101      35.309
  C       96.359    -394.452      36.186
  O       97.294    -393.720      36.507
  N       94.998    -392.930      34.648
  C       93.870    -393.172      34.009
  N       93.409    -394.452      34.218
  O       92.036    -389.529      34.227
  O       90.259    -389.632      32.396
  H       91.169    -397.336      33.621
  H       92.288    -388.776      33.664
  H       96.984    -396.033      37.292
  H       93.353    -392.462      33.381
  H       92.617    -395.841      32.930
  H       91.659    -396.025      35.565
  H       95.998    -398.145      37.541
  H       90.755    -393.750      35.522
  H       94.552    -398.513      36.662
  H       89.516    -394.530      32.804
  H       89.759    -392.154      32.270
  H       88.754    -392.367      33.731
  P       88.398    -394.173      36.580
  C       88.616    -396.342      37.986
  O       87.759    -395.314      37.511
  O       87.123    -393.427      35.972
  O       89.307    -393.219      37.279
  H       87.255    -392.455      35.992
  H       88.054    -397.025      38.589
  H       89.400    -395.910      38.573
  H       89.040    -396.866      37.155

 6  7  8  9  10  11  12  13  14  15  26  29  33  34 0
 6-311+G(2d,p)
 ****
 36  38  39  40  41 0
 6-311+G(2d,p)
 ****
 1  2  3  4  5  16  17  18  19  20  21  22  23  24  25 0
 3-21G
 ****
 27  28  30  31  32  35  37  42  43  44  45  46  47 0
 3-21G
 ****
 48  49 0
 3-21G
 ****


