%nproc=1
%NoSave
%Mem=1900MB
#P OB98/GEN NMR

erre ene a

0 1
  C     -591.467     111.534    -369.590
  O     -591.189     110.242    -369.082
  H     -592.465     111.834    -369.256
  H     -591.457     111.518    -370.686
  H     -590.740     112.263    -369.222
  P     -589.739     109.605    -369.349
  C     -590.602     108.349    -371.424
  O     -589.987     108.230    -370.148
  C     -591.416     107.099    -371.748
  O     -590.502     105.994    -371.988
  C     -592.371     106.678    -370.625
  O     -593.580     106.183    -371.218
  C     -591.641     105.545    -369.939
  O     -592.526     104.633    -369.288
  C     -590.873     104.920    -371.098
  N     -589.234     100.569    -369.105
  C     -590.495     100.936    -369.534
  N     -591.476     100.022    -369.385
  N     -590.769     102.101    -370.056
  C     -589.690     102.919    -370.157
  C     -588.397     102.668    -369.769
  C     -588.105     101.380    -369.180
  O     -587.004     101.008    -368.780
  N     -587.593     103.760    -370.016
  C     -588.403     104.658    -370.543
  N     -589.690     104.198    -370.641
  O     -588.871     109.466    -368.138
  O     -589.087     110.564    -370.448
  H     -593.035     104.171    -369.988
  H     -588.465     111.188    -370.031
  H     -589.078      99.660    -368.702
  H     -588.111     105.652    -370.863
  H     -591.480     104.196    -371.665
  H     -590.947     105.947    -369.183
  H     -591.337      99.098    -369.003
  H     -592.608     107.495    -369.936
  H     -592.411     100.258    -369.710
  H     -591.959     107.266    -372.683
  H     -589.814     108.482    -372.178
  H     -591.251     109.234    -371.432
  P     -594.830     107.180    -371.362
  C     -595.731     106.254    -369.128
  O     -596.036     106.595    -370.477
  O     -595.193     107.558    -372.765
  O     -594.365     108.461    -370.522
  H     -594.781     109.258    -370.906
  H     -596.610     105.879    -368.647
  H     -595.385     107.124    -368.610
  H     -594.969     105.503    -369.113

 6  7  8  9  10  11  12  13  14  15  26  29  33  34 0
 6-311+G(2d,p)
 ****
 36  38  39  40  41 0
 6-311+G(2d,p)
 ****
 1  2  3  4  5  16  17  18  19  20  21  22  23  24  25 0
 3-21G
 ****
 27  28  30  31  32  35  37  42  43  44  45  46  47 0
 3-21G
 ****
 48  49 0
 3-21G
 ****


