%nproc=1
%NoSave
%Mem=1900MB
#P OB98/GEN NMR

erre ene a

0 1
  C      -74.479     127.198     719.892
  O      -74.067     125.842     719.664
  P      -73.521     125.355     718.236
  C      -74.388     125.000     715.842
  O      -74.748     125.109     717.214
  C      -75.444     125.603     714.897
  O      -76.633     124.768     714.843
  C      -75.912     127.019     715.265
  O      -76.238     127.664     714.034
  C      -77.178     126.737     716.065
  O      -78.037     127.861     716.176
  C      -77.753     125.572     715.269
  N      -82.609     123.949     715.596
  C      -81.931     124.567     714.601
  N      -80.639     124.929     714.572
  C      -80.002     124.557     715.702
  C      -80.556     123.911     716.801
  C      -81.926     123.609     716.721
  N      -82.640     123.018     717.747
  N      -79.611     123.721     717.786
  C      -78.508     124.255     717.299
  N      -78.690     124.773     716.035
  O      -72.561     124.208     718.308
  O      -72.788     126.642     717.633
  H      -78.765     127.624     716.777
  H      -71.922     126.375     717.258
  H      -82.514     124.811     713.712
  H      -77.558     124.316     717.815
  H      -78.275     125.926     714.367
  H      -76.897     126.433     717.086
  H      -75.170     127.593     715.830
  H      -75.012     125.592     713.885
  H      -74.252     123.941     715.596
  H      -83.633     122.928     717.635
  H      -82.184     122.879     718.638
  H      -73.426     125.502     715.684
  P      -75.353     128.869     713.459
  C      -75.902     131.286     712.799
  O      -76.225     130.207     713.647
  O      -74.831     128.668     712.068
  O      -74.163     129.049     714.515
  H      -73.431     129.541     714.103
  H      -74.978     131.765     713.143
  H      -76.715     132.014     712.822
  H      -75.769     130.940     711.765
  H      -74.806     127.306     720.905
  H      -75.283     127.443     719.230
  H      -73.655     127.856     719.711

 3  4  5  6  7  8  9  10  11  12  22  25  29  30  31  32 0
 6-311+G(2d,p)
 ****
 33  36  37 0
 6-311+G(2d,p)
 ****
 1  2  13  14  15  16  17  18  19  20  21  23  24  26 0
 3-21G
 ****
 27  28  34  35  38  39  40  41  42  43  44  45  46  47  48 0
 3-21G
 ****


