%nproc=1
%NoSave
%Mem=1900MB
#P OB98/GEN NMR

erre ene a

0 1
  C      -32.666     -50.035      47.937
  O      -33.457     -49.574      46.862
  H      -33.304     -50.590      48.630
  H      -32.226     -49.187      48.472
  H      -31.875     -50.701      47.582
  P      -32.733     -48.885      45.610
  C      -31.592     -46.615      45.150
  O      -32.151     -47.484      46.125
  C      -31.964     -45.157      45.447
  O      -33.419     -45.054      45.520
  C      -31.404     -44.619      46.780
  O      -31.199     -43.209      46.611
  C      -32.571     -44.900      47.712
  O      -32.438     -44.260      48.956
  C      -33.730     -44.465      46.803
  N      -35.060     -44.866      47.245
  C      -35.543     -44.311      48.426
  O      -34.929     -43.500      49.122
  N      -36.793     -44.724      48.810
  C      -37.592     -45.602      48.137
  O      -38.715     -45.911      48.512
  C      -37.022     -46.161      46.901
  C      -35.805     -45.770      46.513
  O      -33.536     -48.814      44.355
  O      -31.408     -49.767      45.410
  H      -31.535     -50.384      44.664
  H      -33.284     -44.340      49.448
  H      -37.161     -44.329      49.661
  H      -37.625     -46.870      46.348
  H      -35.364     -46.158      45.600
  H      -33.709     -43.378      46.667
  H      -32.628     -45.970      47.930
  H      -30.466     -45.094      47.075
  H      -31.645     -44.533      44.604
  H      -31.985     -46.905      44.168
  H      -30.504     -46.732      45.147
  P      -29.882     -42.584      45.938
  C      -27.331     -42.591      46.387
  O      -28.621     -42.963      46.858
  O      -29.991     -41.122      45.638
  O      -29.649     -43.431      44.598
  H      -29.165     -42.888      43.948
  H      -26.590     -42.903      47.093
  H      -27.287     -41.528      46.269
  H      -27.146     -43.062      45.444

 6  7  8  9  10  11  12  13  14  15  16  27  31  32  33  34  35 0
 6-311+G(2d,p)
 ****
 36  37 0
 6-311+G(2d,p)
 ****
 1  2  3  4  5  17  18  19  20  21  22  23  24  25 0
 3-21G
 ****
 26  28  29  30  38  39  40  41  42  43  44  45 0
 3-21G
 ****


