%nproc=1
%NoSave
%Mem=1900MB
#P OB98/GEN NMR

erre ene a

0 1
  C     -347.266     105.118    -433.084
  O     -347.253     106.530    -433.119
  H     -348.177     104.738    -433.553
  H     -346.401     104.743    -433.638
  H     -347.204     104.765    -432.051
  P     -348.470     107.283    -432.393
  C     -346.823     109.281    -432.259
  O     -348.162     108.859    -432.476
  C     -346.772     110.800    -432.110
  O     -347.084     111.395    -433.394
  C     -347.749     111.373    -431.068
  O     -347.033     112.115    -430.075
  C     -348.618     112.338    -431.854
  O     -348.901     113.544    -431.148
  C     -347.804     112.603    -433.116
  N     -350.996     116.157    -434.882
  C     -350.015     116.222    -433.959
  N     -349.128     115.267    -433.609
  C     -349.312     114.156    -434.346
  C     -350.256     113.952    -435.337
  C     -351.142     115.012    -435.587
  N     -352.181     114.929    -436.488
  N     -350.145     112.676    -435.863
  C     -349.180     112.109    -435.171
  N     -348.660     112.959    -434.229
  O     -348.243     106.939    -430.844
  O     -349.830     106.881    -432.854
  H     -349.264     113.284    -430.281
  H     -349.083     106.639    -430.449
  H     -349.930     117.161    -433.421
  H     -348.848     111.084    -435.274
  H     -347.072     113.409    -432.973
  H     -349.570     111.847    -432.092
  H     -348.357     110.598    -430.587
  H     -345.742     111.088    -431.862
  H     -346.203     108.988    -433.113
  H     -352.835     115.692    -436.519
  H     -352.360     114.040    -436.938
  H     -346.433     108.790    -431.361
  P     -346.625     111.321    -428.736
  C     -344.516     112.846    -428.705
  O     -345.549     112.219    -427.956
  O     -345.749     110.102    -429.294
  O     -347.789     110.852    -427.931
  H     -345.798     109.347    -428.679
  H     -343.885     113.404    -428.045
  H     -344.949     113.506    -429.427
  H     -343.936     112.100    -429.207

 6  7  8  9  10  11  12  13  14  15  25  28  32  33  34  35 0
 6-311+G(2d,p)
 ****
 36  39  40 0
 6-311+G(2d,p)
 ****
 1  2  3  4  5  16  17  18  19  20  21  22  23  24 0
 3-21G
 ****
 26  27  29  30  31  37  38  41  42  43  44  45  46  47  48 0
 3-21G
 ****


