%nproc=1
%NoSave
%Mem=1900MB
#P OB98/GEN NMR

erre ene a

0 1
  C     -271.566     204.440     186.294
  O     -270.247     204.829     185.962
  P     -269.023     204.531     186.948
  C     -269.484     206.672     188.280
  O     -269.319     205.262     188.343
  C     -269.044     207.347     189.581
  O     -268.945     208.779     189.369
  C     -269.999     207.111     190.761
  O     -269.194     206.961     191.936
  C     -270.795     208.403     190.823
  O     -271.372     208.624     192.099
  C     -269.723     209.417     190.403
  N     -270.299     210.672     189.940
  C     -270.935     211.467     190.898
  O     -271.106     211.040     192.042
  N     -271.369     212.717     190.527
  C     -271.344     213.056     189.274
  N     -271.722     214.327     188.961
  C     -270.908     212.138     188.203
  C     -270.366     210.994     188.604
  O     -267.670     204.809     186.378
  O     -269.181     202.979     187.314
  H     -268.339     202.520     187.129
  H     -271.801     209.506     192.106
  H     -271.024     212.420     187.163
  H     -269.986     210.264     187.894
  H     -269.043     209.626     191.238
  H     -271.604     208.375     190.081
  H     -270.621     206.221     190.633
  H     -268.041     206.982     189.830
  H     -271.973     214.938     189.726
  H     -270.541     206.881     188.109
  H     -271.438     214.773     188.089
  H     -268.922     207.074     187.429
  P     -269.393     205.645     192.831
  C     -270.823     206.727     194.710
  O     -270.766     205.803     193.643
  O     -268.297     205.872     193.985
  O     -269.150     204.330     192.158
  H     -268.039     205.005     194.354
  H     -271.803     206.654     195.186
  H     -270.691     207.744     194.336
  H     -270.055     206.502     195.453
  H     -272.232     204.729     185.508
  H     -271.860     204.918     187.205
  H     -271.604     203.378     186.420

 3  4  5  6  7  8  9  10  11  12  13  24  27  28  29  30  32 0
 6-311+G(2d,p)
 ****
 34  35 0
 6-311+G(2d,p)
 ****
 1  2  14  15  16  17  18  19  20  21  22  23  25  26 0
 3-21G
 ****
 31  33  36  37  38  39  40  41  42  43  44  45  46 0
 3-21G
 ****


