%nproc=1
%NoSave
%Mem=1900MB
#P OB98/GEN NMR

erre ene a

0 1
  C     -893.230     468.895    1088.007
  O     -893.570     468.513    1086.691
  P     -895.130     468.412    1086.316
  C     -895.640     470.972    1085.877
  O     -895.450     469.672    1085.348
  C     -895.700     471.977    1084.741
  O     -894.390     472.139    1084.130
  C     -896.640     471.639    1083.600
  O     -898.010     471.867    1083.950
  C     -896.120     472.542    1082.465
  O     -896.610     473.876    1082.641
  C     -894.590     472.491    1082.740
  N     -893.890     471.575    1081.827
  C     -893.280     472.115    1080.739
  O     -893.320     473.326    1080.462
  N     -892.630     471.226    1079.901
  C     -892.600     469.888    1080.010
  O     -892.040     469.119    1079.230
  C     -893.280     469.330    1081.211
  C     -893.910     470.167    1082.079
  O     -895.820     468.817    1087.714
  O     -895.520     467.075    1085.786
  H     -895.230     469.396    1088.249
  H     -896.160     474.229    1083.443
  H     -892.170     471.600    1079.104
  H     -893.260     468.260    1081.360
  H     -894.420     469.795    1082.948
  H     -894.160     473.488    1082.585
  H     -896.410     472.182    1081.475
  H     -896.520     470.560    1083.317
  H     -895.980     472.970    1085.197
  H     -894.810     471.215    1086.561
  H     -896.580     470.979    1086.440
  P     -899.120     470.850    1083.335
  C     -899.180     469.457    1085.560
  O     -899.860     470.212    1084.580
  O     -898.150     469.651    1082.819
  O     -900.000     471.464    1082.286
  H     -897.450     469.447    1083.446
  H     -899.760     469.454    1086.495
  H     -898.210     469.911    1085.805
  H     -899.040     468.435    1085.199
  H     -892.165     468.919    1088.108
  H     -893.638     468.189    1088.700
  H     -893.629     469.867    1088.211

 3  4  5  6  7  8  9  10  11  12  13  24  28  29  30  31  32 0
 6-311+G(2d,p)
 ****
 33  34 0
 6-311+G(2d,p)
 ****
 1  2  14  15  16  17  18  19  20  21  22  23  25  26  27 0
 3-21G
 ****
 35  36  37  38  39  40  41  42  43  44  45 0
 3-21G
 ****


