%nproc=1
%NoSave
%Mem=1900MB
#P OB98/GEN NMR

erre ene a

0 1
  C      143.670     303.377    -532.697
  O      143.576     304.360    -533.702
  H      142.663     303.005    -532.479
  H      144.081     303.806    -531.778
  H      144.286     302.540    -533.030
  P      144.905     305.115    -534.192
  C      143.387     305.796    -536.148
  O      144.401     306.223    -535.247
  C      143.071     306.886    -537.174
  O      142.619     308.083    -536.485
  C      144.268     307.277    -538.050
  O      143.871     307.331    -539.421
  C      144.621     308.680    -537.570
  O      145.308     309.452    -538.549
  C      143.235     309.196    -537.157
  N      143.321     310.382    -536.314
  C      142.248     311.274    -536.389
  O      141.297     311.037    -537.133
  N      142.302     312.437    -535.666
  C      143.359     312.709    -534.963
  N      143.363     313.892    -534.294
  C      144.527     311.807    -534.876
  C      144.439     310.670    -535.566
  O      145.986     304.214    -534.692
  O      145.360     306.001    -532.938
  H      145.778     310.184    -538.094
  H      146.319     306.207    -533.021
  H      145.384     312.082    -534.284
  H      145.250     309.947    -535.568
  H      142.633     309.439    -538.041
  H      145.268     308.607    -536.683
  H      145.115     306.600    -537.951
  H      142.227     306.547    -537.787
  H      142.544     314.482    -534.385
  H      142.492     305.539    -535.573
  H      144.135     314.223    -533.739
  H      143.749     304.905    -536.674
  P      144.079     305.983    -540.270
  C      142.156     306.372    -541.974
  O      143.557     306.254    -541.765
  O      142.986     304.986    -539.654
  O      145.456     305.419    -540.167
  H      143.428     304.281    -539.145
  H      141.964     306.550    -543.011
  H      141.777     307.189    -541.396
  H      141.673     305.466    -541.672

 6  7  8  9  10  11  12  13  14  15  16  26  30  31  32  33  35 0
 6-311+G(2d,p)
 ****
 37  38 0
 6-311+G(2d,p)
 ****
 1  2  3  4  5  17  18  19  20  21  22  23  24  25 0
 3-21G
 ****
 27  28  29  34  36  39  40  41  42  43  44  45  46 0
 3-21G
 ****


