%nproc=1
%NoSave
%Mem=1900MB
#P OB98/GEN NMR

erre ene a

0 1
  C      208.432     530.998     253.335
  O      209.314     532.082     253.539
  H      208.297     530.474     254.284
  H      208.857     530.305     252.603
  H      207.458     531.359     252.989
  P      209.503     533.101     252.308
  C      211.676     533.817     251.015
  O      210.980     532.820     251.745
  C      212.961     533.243     250.419
  O      213.993     533.254     251.434
  C      212.823     531.803     249.911
  O      213.610     531.663     248.728
  C      213.413     530.972     251.033
  O      213.871     529.700     250.567
  C      214.500     531.911     251.572
  N      214.857     531.612     252.959
  C      215.515     530.403     253.192
  O      215.753     529.633     252.255
  N      215.853     530.067     254.481
  C      215.501     530.839     255.461
  N      215.843     530.444     256.711
  C      214.758     532.099     255.266
  C      214.481     532.428     254.003
  O      209.644     534.504     253.066
  O      208.409     533.049     251.294
  H      214.185     529.189     251.346
  H      210.192     534.461     253.870
  H      214.469     532.704     256.114
  H      213.942     533.341     253.771
  H      215.410     531.838     250.960
  H      212.652     530.791     251.809
  H      211.789     531.519     249.701
  H      213.304     533.914     249.617
  H      216.335     529.562     256.808
  H      211.919     534.663     251.664
  H      215.576     530.939     257.551
  H      211.014     534.176     250.218
  P      212.935     531.942     247.300
  C      212.448     530.634     245.129
  O      212.811     530.551     246.502
  O      213.520     533.074     246.514
  O      211.405     532.254     247.680
  H      211.090     532.968     247.095
  H      212.399     529.649     244.713
  H      213.180     531.208     244.601
  H      211.492     531.106     245.041

 6  7  8  9  10  11  12  13  14  15  16  26  30  31  32  33  35 0
 6-311+G(2d,p)
 ****
 37  38 0
 6-311+G(2d,p)
 ****
 1  2  3  4  5  17  18  19  20  21  22  23  24  25 0
 3-21G
 ****
 27  28  29  34  36  39  40  41  42  43  44  45  46 0
 3-21G
 ****


