%nproc=1
%NoSave
%Mem=1900MB
#P OB98/GEN NMR

erre ene a

0 1
  C       82.937      88.603     -66.984
  O       83.548      87.325     -67.034
  P       84.498      87.001     -68.287
  C       82.341      86.381     -69.603
  O       83.571      87.094     -69.592
  C       81.235      87.246     -70.199
  O       81.233      88.559     -69.601
  C       81.372      87.489     -71.696
  O       80.888      86.402     -72.467
  C       80.479      88.707     -71.877
  O       79.100      88.302     -71.932
  C       80.754      89.500     -70.592
  N       82.088      93.427     -73.487
  C       80.916      92.697     -73.475
  N       79.995      93.024     -74.407
  N       80.668      91.736     -72.626
  C       81.685      91.514     -71.756
  C       82.891      92.173     -71.669
  C       83.156      93.227     -72.623
  O       84.193      93.873     -72.719
  N       83.661      91.672     -70.654
  C       82.926      90.714     -70.125
  N       81.737      90.551     -70.787
  O       84.775      85.431     -68.146
  O       85.761      87.794     -68.333
  H       78.905      87.858     -71.082
  H       85.548      85.179     -68.685
  H       82.234      94.156     -74.167
  H       83.219      90.106     -69.279
  H       79.844      89.958     -70.194
  H       80.688      89.253     -72.802
  H       80.151      93.711     -75.129
  H       82.403      87.751     -71.965
  H       79.153      92.463     -74.462
  H       80.272      86.770     -69.973
  H       82.078      86.103     -68.580
  H       82.461      85.464     -70.188
  P       81.978      85.554     -73.286
  C       80.511      85.847     -75.409
  O       81.788      85.984     -74.818
  O       81.395      84.066     -73.228
  O       83.364      85.642     -72.742
  H       82.115      83.415     -73.310
  H       80.493      86.421     -76.341
  H       79.727      86.230     -74.750
  H       80.319      84.797     -75.640
  H       82.337      88.677     -66.101
  H       82.319      88.737     -67.847
  H       83.693      89.360     -66.966

 3  4  5  6  7  8  9  10  11  12  23  26  30  31 0
 6-311+G(2d,p)
 ****
 33  35  36  37  38 0
 6-311+G(2d,p)
 ****
 1  2  13  14  15  16  17  18  19  20  21  22  24  25 0
 3-21G
 ****
 27  28  29  32  34  39  40  41  42  43  44  45  46  47  48  49 0
 3-21G
 ****


