%nproc=1
%NoSave
%Mem=1900MB
#P OB98/GEN NMR

erre ene a

0 1
  C      136.318      73.410    -193.121
  O      135.700      73.341    -191.852
  H      137.340      73.785    -193.024
  H      136.352      72.405    -193.551
  H      135.744      74.060    -193.786
  P      135.539      74.720    -191.046
  C      136.335      73.432    -188.934
  O      136.483      74.583    -189.755
  C      137.684      73.057    -188.330
  O      138.633      72.752    -189.377
  C      138.327      74.160    -187.499
  O      137.798      74.223    -186.187
  C      139.773      73.695    -187.490
  O      139.928      72.615    -186.549
  C      139.946      73.180    -188.925
  N      144.141      74.979    -191.236
  C      143.960      73.975    -190.355
  N      142.809      73.560    -189.783
  C      141.774      74.303    -190.204
  C      141.808      75.366    -191.092
  C      143.064      75.699    -191.628
  N      143.257      76.733    -192.516
  N      140.547      75.907    -191.254
  C      139.763      75.160    -190.503
  N      140.460      74.185    -189.840
  O      134.065      74.625    -190.431
  O      135.748      75.963    -191.844
  H      139.754      72.989    -185.664
  H      133.739      75.517    -190.203
  H      144.856      73.430    -190.070
  H      138.693      75.285    -190.406
  H      140.613      72.312    -188.982
  H      140.474      74.478    -187.197
  H      138.266      75.133    -188.004
  H      137.546      72.149    -187.730
  H      135.968      72.600    -189.544
  H      144.211      77.005    -192.693
  H      142.487      77.364    -192.692
  H      135.609      73.643    -188.144
  P      137.684      75.671    -185.504
  C      137.623      74.494    -183.185
  O      138.224      75.492    -184.006
  O      136.108      75.862    -185.316
  O      138.302      76.781    -186.291
  H      135.873      76.809    -185.306
  H      138.088      74.497    -182.221
  H      137.751      73.534    -183.640
  H      136.579      74.702    -183.078

 6  7  8  9  10  11  12  13  14  15  25  28  32  33  34  35 0
 6-311+G(2d,p)
 ****
 36  39  40 0
 6-311+G(2d,p)
 ****
 1  2  3  4  5  16  17  18  19  20  21  22  23  24 0
 3-21G
 ****
 26  27  29  30  31  37  38  41  42  43  44  45  46  47 0
 3-21G
 ****
 48 0
 3-21G
 ****


