%nproc=1
%NoSave
%Mem=1900MB
#P OB98/GEN NMR

erre ene a

0 1
  C     -141.196    -142.936    -121.032
  O     -140.487    -144.152    -120.766
  P     -138.898    -144.071    -120.580
  C     -137.188    -145.452    -119.189
  O     -138.403    -145.447    -119.924
  C     -137.132    -146.668    -118.260
  O     -137.910    -146.460    -117.059
  C     -137.678    -147.943    -118.891
  O     -136.703    -148.588    -119.702
  C     -137.960    -148.784    -117.656
  O     -136.736    -149.379    -117.178
  C     -138.469    -147.736    -116.660
  N     -142.694    -149.722    -114.712
  C     -141.373    -150.067    -114.507
  N     -141.142    -151.086    -113.652
  N     -140.369    -149.466    -115.089
  C     -140.746    -148.455    -115.905
  C     -142.022    -148.022    -116.190
  C     -143.127    -148.704    -115.553
  O     -144.317    -148.452    -115.708
  N     -142.008    -146.973    -117.072
  C     -140.726    -146.757    -117.305
  N     -139.922    -147.643    -116.632
  O     -138.733    -143.027    -119.377
  O     -138.157    -143.631    -121.799
  H     -136.053    -148.681    -117.213
  H     -137.874    -142.569    -119.451
  H     -143.430    -150.222    -114.242
  H     -140.335    -145.979    -117.946
  H     -138.139    -147.936    -115.635
  H     -138.651    -149.607    -117.861
  H     -141.866    -151.558    -113.131
  H     -138.608    -147.751    -119.439
  H     -140.178    -151.329    -113.461
  H     -136.085    -146.830    -117.972
  H     -137.094    -144.534    -118.602
  H     -136.350    -145.444    -119.889
  P     -137.053    -148.825    -121.248
  C     -135.710    -150.027    -123.116
  O     -136.074    -149.986    -121.751
  O     -136.482    -147.504    -121.949
  O     -138.503    -149.023    -121.537
  H     -137.022    -147.280    -122.730
  H     -134.921    -150.772    -123.245
  H     -135.334    -149.057    -123.449
  H     -136.572    -150.321    -123.725
  H     -142.240    -143.146    -121.131
  H     -140.832    -142.502    -121.940
  H     -141.045    -142.251    -120.224

 3  4  5  6  7  8  9  10  11  12  23  26  30  31 0
 6-311+G(2d,p)
 ****
 33  35  36  37  38 0
 6-311+G(2d,p)
 ****
 1  2  13  14  15  16  17  18  19  20  21  22  24  25 0
 3-21G
 ****
 27  28  29  32  34  39  40  41  42  43  44  45  46  47  48  49 0
 3-21G
 ****


