%nproc=1
%NoSave
%Mem=1900MB
#P OB98/GEN NMR

erre ene a

0 1
  C     -183.232    -429.508     104.914
  O     -184.154    -430.574     105.054
  P     -185.413    -430.637     104.065
  C     -185.388    -433.236     103.926
  O     -186.118    -432.064     104.264
  C     -185.874    -434.425     104.767
  O     -185.373    -434.278     106.136
  C     -187.398    -434.560     104.853
  O     -187.704    -435.958     104.923
  C     -187.714    -433.901     106.180
  O     -188.978    -434.270     106.701
  C     -186.514    -434.381     107.013
  N     -186.327    -433.608     108.236
  C     -186.800    -434.159     109.422
  O     -187.359    -435.252     109.496
  N     -186.659    -433.385     110.541
  C     -186.193    -432.101     110.573
  O     -186.209    -431.415     111.593
  C     -185.710    -431.564     109.293
  C     -185.796    -432.325     108.202
  O     -184.739    -430.748     102.617
  O     -186.337    -429.472     104.159
  H     -189.662    -433.957     106.075
  H     -184.735    -429.879     102.173
  H     -186.989    -433.773     111.412
  H     -185.313    -430.562     109.293
  H     -185.466    -431.950     107.238
  H     -186.634    -435.441     107.264
  H     -187.708    -432.812     106.058
  H     -187.927    -434.093     104.009
  H     -185.426    -435.341     104.361
  H     -184.330    -433.068     104.116
  H     -185.507    -433.450     102.854
  P     -188.934    -436.499     104.035
  C     -187.903    -438.904     104.195
  O     -189.042    -438.073     104.326
  O     -188.303    -436.418     102.566
  O     -190.189    -435.709     104.198
  H     -187.384    -436.742     102.534
  H     -186.994    -438.379     104.492
  H     -187.814    -439.231     103.158
  H     -188.031    -439.780     104.836
  H     -182.456    -429.610     105.643
  H     -183.738    -428.577     105.060
  H     -182.805    -429.532     103.933

 3  4  5  6  7  8  9  10  11  12  13  23  28  29  30  31  32 0
 6-311+G(2d,p)
 ****
 33  34 0
 6-311+G(2d,p)
 ****
 1  2  14  15  16  17  18  19  20  21  22  24  25  26 0
 3-21G
 ****
 27  35  36  37  38  39  40  41  42  43  44  45 0
 3-21G
 ****


