%nproc=1
%NoSave
%Mem=1900MB
#P OB98/GEN NMR

erre ene a

0 1
  C      181.020    -118.560     169.900
  O      180.108    -119.003     168.915
  H      181.806    -119.313     170.013
  H      180.510    -118.433     170.859
  H      181.479    -117.616     169.592
  P      178.839    -118.055     168.644
  C      176.472    -117.812     169.675
  O      177.750    -118.428     169.764
  C      175.562    -118.301     170.799
  O      176.116    -117.962     172.089
  C      174.150    -117.727     170.760
  O      173.328    -118.460     169.867
  C      173.728    -117.885     172.215
  O      173.308    -119.240     172.488
  C      175.029    -117.559     172.964
  N      173.279    -113.866     175.935
  C      172.830    -115.161     175.763
  N      171.733    -115.519     176.465
  N      173.396    -116.026     174.964
  C      174.447    -115.512     174.278
  C      174.986    -114.249     174.360
  C      174.385    -113.321     175.292
  O      174.786    -112.186     175.550
  N      176.066    -114.116     173.523
  C      176.155    -115.285     172.914
  N      175.188    -116.165     173.333
  O      178.205    -118.655     167.301
  O      179.145    -116.604     168.493
  H      172.561    -119.465     171.907
  H      177.877    -117.916     166.751
  H      172.824    -113.253     176.587
  H      176.897    -115.543     172.170
  H      175.122    -118.139     173.887
  H      172.877    -117.246     172.460
  H      171.098    -114.837     176.856
  H      174.166    -116.661     170.500
  H      171.361    -116.446     176.282
  H      175.533    -119.400     170.742
  H      176.025    -118.065     168.708
  H      176.592    -116.725     169.741
  P      171.912    -117.835     169.456
  C      169.730    -117.234     170.734
  O      170.902    -118.038     170.688
  O      171.373    -118.865     168.354
  O      171.979    -116.451     168.903
  H      171.455    -118.471     167.466
  H      169.161    -117.482     171.606
  H      169.140    -117.414     169.860
  H      170.007    -116.201     170.771

 6  7  8  9  10  11  12  13  14  15  26  29  33  34 0
 6-311+G(2d,p)
 ****
 36  38  39  40  41 0
 6-311+G(2d,p)
 ****
 1  2  3  4  5  16  17  18  19  20  21  22  23  24  25 0
 3-21G
 ****
 27  28  30  31  32  35  37  42  43  44  45  46  47 0
 3-21G
 ****
 48  49 0
 3-21G
 ****


