%nproc=1
%NoSave
%Mem=1900MB
#P OB98/GEN NMR

erre ene a

0 1
  C     -202.025      87.743      26.369
  O     -202.752      87.297      27.519
  P     -203.275      85.778      27.520
  C     -204.461      84.303      29.335
  O     -204.089      85.602      28.890
  C     -204.541      84.277      30.857
  O     -203.218      84.363      31.444
  C     -205.324      85.435      31.464
  O     -206.723      85.263      31.282
  C     -204.853      85.380      32.911
  O     -205.566      84.359      33.631
  C     -203.370      84.970      32.747
  N     -202.449      86.083      32.932
  C     -202.742      86.944      33.984
  O     -203.726      86.810      34.712
  N     -201.868      87.988      34.166
  C     -200.777      88.261      33.390
  O     -200.026      89.204      33.607
  C     -200.550      87.343      32.264
  C     -201.382      86.312      32.087
  O     -201.908      84.984      27.763
  O     -204.010      85.414      26.274
  H     -201.291      85.454      28.347
  H     -206.515      84.553      33.512
  H     -202.055      88.615      34.933
  H     -199.705      87.547      31.612
  H     -201.231      85.628      31.256
  H     -203.112      84.193      33.480
  H     -205.010      86.325      33.438
  H     -205.006      86.380      31.006
  H     -204.989      83.318      31.162
  H     -203.720      83.571      29.001
  H     -205.419      84.035      28.882
  P     -207.443      86.244      30.231
  C     -209.926      86.981      29.864
  O     -208.968      86.375      30.703
  O     -207.512      85.310      28.934
  O     -206.719      87.533      30.026
  H     -207.799      84.402      29.132
  H     -210.924      86.668      30.184
  H     -209.786      86.686      28.821
  H     -209.851      88.068      29.949
  H     -201.740      88.766      26.502
  H     -202.643      87.655      25.500
  H     -201.149      87.141      26.245

 3  4  5  6  7  8  9  10  11  12  13  24  28  29  30  31  32 0
 6-311+G(2d,p)
 ****
 33  34 0
 6-311+G(2d,p)
 ****
 1  2  14  15  16  17  18  19  20  21  22  23  25  26  27 0
 3-21G
 ****
 35  36  37  38  39  40  41  42  43  44  45 0
 3-21G
 ****


