%nproc=1
%NoSave
%Mem=1900MB
#P OB98/GEN NMR

erre ene a

0 1
  C     -835.974      84.055    -224.207
  O     -836.518      84.982    -223.283
  P     -835.499      85.994    -222.556
  C     -835.534      88.047    -224.150
  O     -834.828      86.890    -223.714
  C     -834.854      89.321    -223.639
  O     -834.685      89.220    -222.197
  C     -833.463      89.587    -224.241
  O     -833.330      91.013    -224.356
  C     -832.544      89.036    -223.165
  O     -831.201      89.481    -223.273
  C     -833.291      89.466    -221.918
  N     -831.612      89.945    -217.109
  C     -832.022      90.860    -218.014
  N     -832.461      90.658    -219.273
  C     -832.475      89.342    -219.573
  C     -832.080      88.298    -218.756
  C     -831.632      88.642    -217.461
  N     -831.205      87.697    -216.545
  N     -832.212      87.091    -219.407
  C     -832.679      87.401    -220.597
  N     -832.869      88.749    -220.731
  O     -834.301      85.039    -222.102
  O     -836.080      86.757    -221.407
  H     -830.783      89.115    -224.079
  H     -833.960      85.295    -221.227
  H     -831.982      91.894    -217.690
  H     -832.871      86.698    -221.397
  H     -833.170      90.541    -221.718
  H     -832.520      87.940    -223.245
  H     -833.324      89.138    -225.230
  H     -835.513      90.173    -223.832
  H     -836.554      88.028    -223.756
  H     -830.722      88.049    -215.734
  H     -831.031      86.767    -216.883
  H     -835.592      88.045    -225.241
  P     -832.596      91.612    -225.647
  C     -834.387      91.696    -227.490
  O     -833.364      90.929    -226.893
  O     -831.210      90.795    -225.634
  O     -832.436      93.094    -225.678
  H     -831.367      89.840    -225.555
  H     -834.758      91.157    -228.367
  H     -833.998      92.670    -227.807
  H     -835.212      91.828    -226.789
  H     -836.760      83.451    -224.610
  H     -835.263      83.430    -223.708
  H     -835.489      84.585    -225.000

 3  4  5  6  7  8  9  10  11  12  22  25  29  30  31  32 0
 6-311+G(2d,p)
 ****
 33  36  37 0
 6-311+G(2d,p)
 ****
 1  2  13  14  15  16  17  18  19  20  21  23  24  26 0
 3-21G
 ****
 27  28  34  35  38  39  40  41  42  43  44  45  46  47  48 0
 3-21G
 ****


