%nproc=1
%NoSave
%Mem=1900MB
#P OB98/GEN NMR

erre ene a

0 1
  C      413.026     183.693     799.431
  O      412.132     183.453     800.501
  H      413.525     184.649     799.609
  H      412.476     183.755     798.488
  H      413.781     182.909     799.377
  P      411.338     182.059     800.545
  C      412.384     180.195     799.117
  O      412.428     180.898     800.351
  C      412.089     178.717     799.351
  O      413.121     178.160     800.205
  C      410.735     178.458     800.017
  O      410.172     177.274     799.456
  C      411.101     178.208     801.471
  O      410.137     177.390     802.138
  C      412.475     177.549     801.341
  N      415.832     175.333     804.396
  C      415.292     174.901     803.202
  N      415.681     173.682     802.763
  N      414.438     175.594     802.497
  C      414.149     176.801     803.049
  C      414.616     177.342     804.223
  C      415.552     176.554     805.003
  O      416.053     176.881     806.068
  N      414.063     178.580     804.450
  C      413.263     178.785     803.423
  N      413.271     177.726     802.548
  O      410.159     181.963     799.627
  O      410.905     181.908     802.077
  H      409.269     177.844     802.055
  H      409.971     182.163     802.202
  H      416.479     174.754     804.902
  H      412.654     179.664     803.265
  H      412.403     176.470     801.163
  H      411.170     179.164     802.006
  H      416.346     173.094     803.240
  H      410.036     179.293     799.907
  H      415.317     173.354     801.876
  H      412.159     178.191     798.390
  H      413.359     180.305     798.627
  H      411.614     180.636     798.476
  P      408.885     177.411     798.501
  C      409.836     178.506     796.371
  O      409.386     177.294     796.980
  O      407.981     178.555     798.796
  O      408.129     176.004     798.728
  H      407.172     176.146     798.597
  H      410.143     178.307     795.365
  H      410.663     178.898     796.926
  H      409.039     179.220     796.366

 6  7  8  9  10  11  12  13  14  15  26  29  33  34 0
 6-311+G(2d,p)
 ****
 36  38  39  40  41 0
 6-311+G(2d,p)
 ****
 1  2  3  4  5  16  17  18  19  20  21  22  23  24  25 0
 3-21G
 ****
 27  28  30  31  32  35  37  42  43  44  45  46  47 0
 3-21G
 ****
 48  49 0
 3-21G
 ****


