%nproc=1
%NoSave
%Mem=1900MB
#P OB98/GEN NMR

erre ene a

0 1
  C      -73.817     151.833    -145.642
  O      -72.705     151.582    -146.494
  P      -71.786     152.835    -146.903
  C      -72.106     152.233    -149.410
  O      -72.227     153.224    -148.396
  C      -71.598     152.855    -150.708
  O      -72.279     154.101    -150.961
  C      -70.115     153.188    -150.715
  O      -69.311     152.055    -151.008
  C      -70.049     154.193    -151.853
  O      -70.059     153.499    -153.116
  C      -71.355     154.974    -151.666
  N      -68.949     159.484    -151.549
  C      -68.851     158.435    -152.392
  N      -69.523     157.263    -152.352
  C      -70.332     157.218    -151.280
  C      -70.505     158.193    -150.314
  C      -69.776     159.382    -150.479
  N      -69.897     160.460    -149.633
  N      -71.419     157.781    -149.369
  C      -71.800     156.583    -149.760
  N      -71.178     156.202    -150.919
  O      -70.341     152.171    -147.107
  O      -71.757     153.948    -145.912
  H      -70.797     152.860    -153.082
  H      -69.645     152.846    -146.997
  H      -68.154     158.558    -153.215
  H      -72.524     155.966    -149.248
  H      -71.824     155.234    -152.622
  H      -69.139     154.803    -151.831
  H      -69.811     153.675    -149.779
  H      -71.842     152.166    -151.529
  H      -73.084     151.782    -149.588
  H      -69.486     161.335    -149.922
  H      -70.655     160.457    -148.961
  H      -71.415     151.453    -149.066
  P      -67.952     151.898    -150.165
  C      -66.438     153.830    -151.016
  O      -67.357     153.380    -150.039
  O      -66.969     151.168    -151.199
  O      -68.108     151.134    -148.894
  H      -66.283     150.669    -150.722
  H      -66.378     154.919    -150.964
  H      -66.757     153.544    -152.022
  H      -65.448     153.413    -150.810
  H      -74.336     150.916    -145.453
  H      -74.480     152.527    -146.116
  H      -73.472     152.244    -144.717

 3  4  5  6  7  8  9  10  11  12  22  25  29  30  31  32 0
 6-311+G(2d,p)
 ****
 33  36  37 0
 6-311+G(2d,p)
 ****
 1  2  13  14  15  16  17  18  19  20  21  23  24  26 0
 3-21G
 ****
 27  28  34  35  38  39  40  41  42  43  44  45  46  47  48 0
 3-21G
 ****


