%nproc=1
%NoSave
%Mem=1900MB
#P OB98/GEN NMR

erre ene a

0 1
  C     -180.606    -141.079    -200.493
  O     -180.976    -142.226    -201.230
  H     -181.105    -141.112    -199.521
  H     -180.920    -140.173    -201.015
  H     -179.524    -141.061    -200.328
  P     -180.375    -142.415    -202.705
  C     -179.525    -144.814    -202.218
  O     -180.430    -144.005    -202.951
  C     -179.824    -146.292    -202.459
  O     -180.931    -146.742    -201.652
  C     -180.225    -146.640    -203.886
  O     -179.148    -146.616    -204.808
  C     -180.774    -148.038    -203.671
  O     -179.683    -148.962    -203.499
  C     -181.564    -147.847    -202.356
  N     -182.980    -147.568    -202.586
  C     -183.868    -148.638    -202.403
  O     -183.453    -149.749    -202.077
  N     -185.207    -148.432    -202.628
  C     -185.623    -147.268    -203.029
  N     -186.959    -147.123    -203.246
  C     -184.720    -146.123    -203.251
  C     -183.432    -146.335    -203.014
  O     -179.050    -141.773    -202.960
  O     -181.535    -141.899    -203.680
  H     -179.127    -148.895    -204.295
  H     -181.207    -141.984    -204.609
  H     -185.114    -145.183    -203.611
  H     -182.702    -145.545    -203.162
  H     -181.474    -148.733    -201.715
  H     -181.375    -148.398    -204.507
  H     -181.045    -145.995    -204.230
  H     -178.941    -146.862    -202.141
  H     -187.553    -147.925    -203.083
  H     -179.622    -144.561    -201.156
  H     -187.362    -146.275    -203.627
  H     -178.498    -144.613    -202.540
  P     -179.515    -146.352    -206.351
  C     -177.296    -145.141    -207.012
  O     -178.121    -146.290    -207.140
  O     -180.033    -144.843    -206.347
  O     -180.511    -147.303    -206.938
  H     -181.009    -144.809    -206.336
  H     -176.412    -145.269    -207.602
  H     -177.024    -145.010    -205.986
  H     -177.830    -144.279    -207.352

 6  7  8  9  10  11  12  13  14  15  16  26  30  31  32  33  35 0
 6-311+G(2d,p)
 ****
 37  38 0
 6-311+G(2d,p)
 ****
 1  2  3  4  5  17  18  19  20  21  22  23  24  25 0
 3-21G
 ****
 27  28  29  34  36  39  40  41  42  43  44  45  46 0
 3-21G
 ****


