%nproc=1
%NoSave
%Mem=1900MB
#P OB98/GEN NMR

erre ene a

0 1
  C     -513.886     277.809     -45.612
  O     -513.524     277.576     -46.963
  H     -513.011     278.179     -45.071
  H     -514.219     276.875     -45.149
  H     -514.681     278.556     -45.559
  P     -514.683     277.051     -47.935
  C     -514.745     274.759     -49.148
  O     -514.512     275.453     -47.926
  C     -515.024     273.285     -48.873
  O     -513.829     272.599     -48.462
  C     -516.041     273.028     -47.762
  O     -517.367     273.181     -48.246
  C     -515.726     271.583     -47.412
  O     -516.343     270.708     -48.373
  C     -514.195     271.528     -47.555
  N     -511.192     269.173     -44.121
  C     -511.914     268.694     -45.159
  N     -512.720     269.370     -46.001
  C     -512.751     270.682     -45.698
  C     -512.069     271.307     -44.661
  C     -511.251     270.501     -43.856
  N     -510.503     270.990     -42.804
  N     -512.339     272.663     -44.644
  C     -513.133     272.850     -45.686
  N     -513.436     271.681     -46.324
  O     -514.749     277.700     -49.277
  O     -515.977     277.261     -47.009
  H     -517.275     270.981     -48.472
  H     -515.775     277.040     -46.085
  H     -511.828     267.627     -45.335
  H     -513.497     273.822     -46.020
  H     -513.862     270.581     -48.015
  H     -516.115     271.299     -46.430
  H     -515.839     273.664     -46.890
  H     -515.363     272.823     -49.813
  H     -513.878     274.854     -49.806
  H     -510.088     270.323     -42.180
  H     -510.645     271.948     -42.541
  H     -515.609     275.225     -49.631
  P     -518.577     273.489     -47.231
  C     -519.829     272.205     -45.388
  O     -518.733     272.184     -46.304
  O     -519.836     273.949     -47.879
  O     -517.988     274.578     -46.227
  H     -518.675     275.241     -45.996
  H     -519.840     271.295     -44.824
  H     -520.746     272.299     -45.931
  H     -519.722     273.036     -44.722

 6  7  8  9  10  11  12  13  14  15  25  28  32  33  34  35 0
 6-311+G(2d,p)
 ****
 36  39  40 0
 6-311+G(2d,p)
 ****
 1  2  3  4  5  16  17  18  19  20  21  22  23  24 0
 3-21G
 ****
 26  27  29  30  31  37  38  41  42  43  44  45  46  47 0
 3-21G
 ****
 48 0
 3-21G
 ****


