%nproc=1
%NoSave
%Mem=1900MB
#P OB98/GEN NMR

erre ene a

0 1
  C      329.777     422.876    -207.317
  O      330.627     421.853    -207.788
  H      330.293     423.835    -207.426
  H      329.547     422.731    -206.259
  H      328.854     422.908    -207.901
  P      330.198     420.320    -207.570
  C      330.827     419.565    -209.946
  O      331.157     419.478    -208.559
  C      331.932     418.963    -210.817
  O      333.109     419.806    -210.761
  C      332.355     417.547    -210.403
  O      332.428     416.713    -211.565
  C      333.737     417.746    -209.803
  O      334.526     416.560    -209.861
  C      334.253     418.928    -210.631
  N      335.384     419.613    -210.012
  C      336.628     418.975    -210.125
  O      336.721     417.892    -210.702
  N      337.727     419.569    -209.564
  C      337.596     420.679    -208.898
  N      338.723     421.217    -208.353
  C      336.295     421.358    -208.713
  C      335.244     420.776    -209.293
  O      328.738     420.049    -207.732
  O      330.761     419.945    -206.122
  H      334.658     416.326    -210.812
  H      330.285     419.151    -205.777
  H      336.229     422.274    -208.138
  H      334.246     421.211    -209.222
  H      334.545     418.603    -211.633
  H      333.644     418.043    -208.750
  H      331.673     417.089    -209.694
  H      331.595     418.985    -211.860
  H      339.593     420.712    -208.504
  H      330.668     420.620    -210.199
  H      338.736     422.070    -207.812
  H      329.898     419.011    -210.108
  P      331.068     415.963    -211.980
  C      331.719     415.585    -214.462
  O      331.403     414.982    -213.213
  O      330.199     417.132    -212.645
  O      330.358     415.320    -210.840
  H      329.540     417.465    -212.010
  H      331.918     414.823    -215.186
  H      332.584     416.205    -214.350
  H      330.893     416.181    -214.790

 6  7  8  9  10  11  12  13  14  15  16  26  30  31  32  33  35 0
 6-311+G(2d,p)
 ****
 37  38 0
 6-311+G(2d,p)
 ****
 1  2  3  4  5  17  18  19  20  21  22  23  24  25 0
 3-21G
 ****
 27  28  29  34  36  39  40  41  42  43  44  45  46 0
 3-21G
 ****


