%nproc=1
%NoSave
%Mem=1900MB
#P OB98/GEN NMR

erre ene a

0 1
  C      -59.754     -45.793    -192.861
  O      -59.759     -44.522    -193.481
  H      -59.018     -45.785    -192.053
  H      -59.478     -46.563    -193.586
  H      -60.739     -46.012    -192.439
  P      -60.793     -44.323    -194.691
  C      -61.732     -42.169    -195.818
  O      -60.646     -42.794    -195.152
  C      -61.335     -40.763    -196.285
  O      -61.039     -39.948    -195.112
  C      -60.080     -40.733    -197.173
  O      -60.189     -39.602    -198.053
  C      -58.984     -40.481    -196.150
  O      -57.785     -40.094    -196.780
  C      -59.692     -39.452    -195.273
  N      -55.745     -37.362    -192.784
  C      -56.120     -37.309    -194.080
  N      -57.190     -37.881    -194.667
  C      -57.927     -38.551    -193.764
  C      -57.677     -38.686    -192.408
  C      -56.521     -38.055    -191.917
  N      -56.132     -38.113    -190.599
  N      -58.658     -39.452    -191.805
  C      -59.484     -39.771    -192.781
  N      -59.079     -39.257    -193.981
  O      -62.218     -44.368    -193.967
  O      -60.693     -45.324    -195.792
  H      -57.306     -40.876    -197.127
  H      -62.588     -45.270    -194.015
  H      -55.472     -36.732    -194.735
  H      -60.377     -40.376    -192.677
  H      -59.754     -38.473    -195.763
  H      -58.764     -41.392    -195.583
  H      -59.945     -41.643    -197.764
  H      -62.192     -40.296    -196.786
  H      -62.576     -42.105    -195.123
  H      -62.025     -42.771    -196.684
  H      -55.281     -37.647    -190.330
  H      -56.691     -38.641    -189.944
  P      -60.568     -39.843    -199.596
  C      -61.008     -38.308    -201.668
  O      -60.419     -38.454    -200.384
  O      -62.162     -40.013    -199.524
  O      -59.938     -41.034    -200.239
  H      -62.462     -40.578    -200.261
  H      -60.810     -37.325    -202.042
  H      -62.065     -38.455    -201.594
  H      -60.593     -39.034    -202.336

 6  7  8  9  10  11  12  13  14  15  25  28  32  33  34  35 0
 6-311+G(2d,p)
 ****
 36  37  40 0
 6-311+G(2d,p)
 ****
 1  2  3  4  5  16  17  18  19  20  21  22  23  24 0
 3-21G
 ****
 26  27  29  30  31  38  39 41  42  43  44  45  46  47  48 0
 3-21G
 ****


