%nproc=1
%NoSave
%Mem=1900MB
#P OB98/GEN NMR

erre ene a

0 1
  C       81.621     658.743     -26.949
  O       81.739     659.850     -26.078
  H       81.833     657.814     -26.411
  H       80.597     658.702     -27.329
  H       82.307     658.849     -27.794
  P       83.180     660.096     -25.414
  C       82.444     661.257     -23.208
  O       83.019     661.405     -24.498
  C       83.152     662.175     -22.221
  O       84.528     661.763     -22.053
  C       83.211     663.639     -22.655
  O       82.003     664.330     -22.377
  C       84.349     664.140     -21.784
  O       83.876     664.347     -20.440
  C       85.326     662.960     -21.830
  N       90.084     661.719     -23.247
  C       89.390     661.479     -22.114
  N       88.127     661.850     -21.812
  C       87.578     662.529     -22.830
  C       88.162     662.856     -24.040
  C       89.480     662.408     -24.238
  N       90.196     662.664     -25.389
  N       87.293     663.598     -24.820
  C       86.193     663.686     -24.102
  N       86.317     663.069     -22.887
  O       84.076     660.614     -26.637
  O       83.785     658.921     -24.722
  H       84.668     664.454     -19.879
  H       85.021     660.488     -26.437
  H       89.918     660.923     -21.346
  H       85.285     664.185     -24.416
  H       85.865     662.821     -20.886
  H       84.764     665.090     -22.128
  H       83.494     663.734     -23.710
  H       82.652     662.079     -21.247
  H       82.555     660.219     -22.882
  H       91.185     662.463     -25.357
  H       89.810     663.304     -26.068
  H       81.376     661.502     -23.259
  P       81.686     665.638     -23.248
  C       81.499     667.186     -21.169
  O       80.845     666.604     -22.292
  O       80.607     665.118     -24.306
  O       82.879     666.252     -23.910
  H       80.626     665.655     -25.119
  H       80.807     667.802     -20.633
  H       82.321     667.782     -21.505
  H       81.860     666.411     -20.525

 6  7  8  9  10  11  12  13  14  15  25  28  32  33  34  35 0
 6-311+G(2d,p)
 ****
 36  39  40 0
 6-311+G(2d,p)
 ****
 1  2  3  4  5  16  17  18  19  20  21  22  23  24 0
 3-21G
 ****
 26  27  29  30  31  37  38  41  42  43  44  45  46  47 0
 3-21G
 ****
 48 0
 3-21G
 ****


