%nproc=1
%NoSave
%Mem=1900MB
#P OB98/GEN NMR

erre ene a

0 1
  C     -103.740     108.988     543.304
  O     -105.006     109.606     543.231
  H     -103.878     107.945     543.595
  H     -103.128     109.487     544.061
  H     -103.229     109.018     542.339
  P     -105.131     111.035     542.520
  C     -106.301     110.591     540.263
  O     -106.453     110.999     541.616
  C     -107.597     110.824     539.475
  O     -107.370     110.475     538.086
  C     -108.730     109.927     539.982
  O     -110.012     110.511     539.765
  C     -108.597     108.691     539.110
  O     -109.804     107.937     539.017
  C     -108.147     109.303     537.784
  N     -108.071     106.215     533.729
  C     -109.148     106.822     534.344
  N     -110.365     106.576     533.802
  N     -109.045     107.582     535.404
  C     -107.778     107.682     535.875
  C     -106.634     107.108     535.368
  C     -106.759     106.300     534.172
  O     -105.839     105.720     533.602
  N     -105.534     107.432     536.123
  C     -106.012     108.193     537.089
  N     -107.366     108.392     536.967
  O     -103.961     111.012     541.423
  O     -105.009     112.222     543.428
  H     -110.154     107.834     539.921
  H     -103.712     111.920     541.176
  H     -108.203     105.664     532.898
  H     -105.423     108.629     537.885
  H     -109.013     109.618     537.190
  H     -107.840     108.036     539.556
  H     -110.503     105.848     533.121
  H     -108.629     109.676     541.034
  H     -111.171     106.746     534.409
  H     -107.864     111.888     539.495
  H     -106.048     109.528     540.279
  H     -105.467     111.119     539.800
  P     -110.712     111.301     540.972
  C     -109.388     113.586     541.158
  O     -110.537     112.874     540.762
  O     -109.773     110.981     542.225
  O     -112.132     110.916     541.222
  H     -110.263     110.464     542.892
  H     -109.507     114.621     540.912
  H     -108.533     113.195     540.648
  H     -109.251     113.484     542.214

 6  7  8  9  10  11  12  13  14  15  26  29  33  34 0
 6-311+G(2d,p)
 ****
 36  38  39  40  41 0
 6-311+G(2d,p)
 ****
 1  2  3  4  5  16  17  18  19  20  21  22  23  24  25 0
 3-21G
 ****
 27  28  30  31  32  35  37  42  43  44  45  46  47 0
 3-21G
 ****
 48  49 0
 3-21G
 ****


