%nproc=1
%NoSave
%Mem=1900MB
#P OB98/GEN NMR

erre ene a

0 1
  C     -213.013     147.280     269.436
  O     -212.262     148.465     269.630
  H     -213.932     147.343     270.024
  H     -212.435     146.412     269.762
  H     -213.279     147.174     268.376
  P     -210.887     148.581     268.809
  C     -209.356     147.431     270.583
  O     -209.972     147.357     269.303
  C     -207.836     147.306     270.444
  O     -207.244     147.353     271.780
  C     -207.377     145.987     269.797
  O     -206.140     146.224     269.095
  C     -207.096     145.122     271.017
  O     -206.317     144.006     270.667
  C     -206.438     146.156     271.923
  N     -204.785     142.522     275.097
  C     -204.613     142.709     273.769
  N     -205.081     143.710     273.001
  C     -205.771     144.601     273.739
  C     -206.026     144.545     275.102
  C     -205.503     143.437     275.795
  N     -205.694     143.236     277.138
  N     -206.792     145.631     275.490
  C     -206.990     146.328     274.388
  N     -206.385     145.741     273.307
  O     -210.183     149.868     269.457
  O     -211.027     148.706     267.331
  H     -206.083     143.475     271.457
  H     -210.413     150.669     268.947
  H     -204.026     141.948     273.261
  H     -207.555     147.249     274.313
  H     -205.415     146.398     271.605
  H     -208.032     144.745     271.453
  H     -208.115     145.560     269.111
  H     -207.445     148.174     269.898
  H     -209.744     146.611     271.204
  H     -209.604     148.389     271.052
  H     -205.311     142.399     277.557
  H     -206.257     143.890     277.662
  P     -205.999     145.716     267.572
  C     -204.620     143.529     267.938
  O     -205.845     144.121     267.530
  O     -204.520     146.215     267.199
  O     -206.995     146.284     266.615
  H     -204.531     146.638     266.316
  H     -204.690     142.465     267.847
  H     -204.421     143.788     268.957
  H     -203.826     143.888     267.317

 6  7  8  9  10  11  12  13  14  15  25  28  32  33  34  35 0
 6-311+G(2d,p)
 ****
 36  37  40 0
 6-311+G(2d,p)
 ****
 1  2  3  4  5  16  17  18  19  20  21  22  23  24 0
 3-21G
 ****
 26  27  29  30  31  38  39 41  42  43  44  45  46  47  48 0
 3-21G
 ****


