%nproc=1
%NoSave
%Mem=1900MB
#P OB98/GEN NMR

erre ene a

0 1
  C       20.963     549.193     342.748
  O       20.986     549.862     341.485
  P       20.165     551.226     341.306
  C       21.630     552.732     339.813
  O       21.203     552.437     341.132
  C       23.014     553.398     339.815
  O       23.032     554.498     340.764
  C       24.142     552.431     340.196
  O       25.229     552.439     339.270
  C       24.483     552.828     341.622
  O       25.802     552.458     342.002
  C       24.154     554.325     341.645
  N       23.876     554.807     343.001
  C       24.863     554.595     343.952
  O       25.897     553.968     343.725
  N       24.598     555.073     345.208
  C       23.433     555.659     345.611
  O       23.231     556.032     346.759
  C       22.401     555.802     344.574
  C       22.666     555.376     343.338
  O       19.077     551.464     342.296
  O       19.558     551.082     339.826
  H       25.893     551.483     341.897
  H       18.653     551.453     339.834
  H       25.314     554.945     345.907
  H       21.458     556.242     344.863
  H       21.918     555.453     342.559
  H       24.992     554.915     341.257
  H       23.793     552.309     342.299
  H       23.798     551.395     340.186
  H       23.184     553.804     338.809
  H       20.915     553.411     339.340
  H       21.619     551.817     339.211
  P       25.253     551.630     337.892
  C       25.991     553.574     336.343
  O       24.974     552.659     336.696
  O       24.429     550.386     337.854
  O       26.805     551.267     337.712
  H       26.885     550.362     337.362
  H       25.535     554.411     335.807
  H       26.705     553.082     335.683
  H       26.508     553.958     337.228
  H       21.559     548.306     342.693
  H       19.955     548.931     342.994
  H       21.357     549.841     343.502

 3  4  5  6  7  8  9  10  11  12  13  23  28  29  30  31  32 0
 6-311+G(2d,p)
 ****
 33  34 0
 6-311+G(2d,p)
 ****
 1  2  14  15  16  17  18  19  20  21  22  24  25  26  27 0
 3-21G
 ****
 35  36  37  38  39  40  41  42  43  44  45 0
 3-21G
 ****


