%nproc=1
%NoSave
%Mem=1900MB
#P OB98/GEN NMR

erre ene a

0 1
  C        2.743    -331.443    -214.547
  O        3.366    -330.743    -213.483
  P        3.864    -329.246    -213.792
  C        6.249    -330.196    -214.259
  O        5.173    -329.387    -214.704
  C        6.813    -330.999    -215.435
  O        5.737    -331.572    -216.205
  C        7.647    -330.178    -216.411
  O        8.968    -330.020    -215.922
  C        7.557    -331.026    -217.674
  O        8.491    -332.122    -217.627
  C        6.108    -331.534    -217.612
  N        4.205    -330.554    -222.194
  C        5.289    -331.333    -221.827
  N        5.925    -331.982    -222.827
  N        5.702    -331.470    -220.596
  C        4.979    -330.754    -219.707
  C        3.901    -329.935    -219.945
  C        3.417    -329.834    -221.304
  O        2.406    -329.237    -221.664
  N        3.438    -329.356    -218.789
  C        4.220    -329.854    -217.851
  N        5.158    -330.722    -218.349
  O        4.419    -328.751    -212.381
  O        2.820    -328.330    -214.356
  H        8.329    -332.645    -216.822
  H        3.753    -328.204    -211.918
  H        3.920    -330.499    -223.154
  H        4.135    -329.632    -216.798
  H        6.016    -332.560    -217.995
  H        7.794    -330.453    -218.572
  H        5.677    -331.905    -223.802
  H        7.180    -329.202    -216.586
  H        6.723    -332.556    -222.578
  H        7.405    -331.827    -215.022
  H        5.889    -330.886    -213.491
  H        7.026    -329.557    -213.824
  P        9.440    -328.536    -215.534
  C       11.371    -328.436    -217.267
  O       10.129    -327.906    -216.834
  O       10.660    -328.791    -214.532
  O        8.380    -327.697    -214.900
  H       10.663    -328.103    -213.837
  H       11.445    -328.316    -218.349
  H       11.469    -329.494    -217.019
  H       12.183    -327.876    -216.793
  H        2.460    -332.420    -214.214
  H        3.426    -331.529    -215.366
  H        1.872    -330.908    -214.864

 3  4  5  6  7  8  9  10  11  12  23  26  30  31 0
 6-311+G(2d,p)
 ****
 33  35  36  37  38 0
 6-311+G(2d,p)
 ****
 1  2  13  14  15  16  17  18  19  20  21  22  24  25 0
 3-21G
 ****
 27  28  29  32  34  39  40  41  42  43  44  45  46  47  48  49 0
 3-21G
 ****


