%nproc=1
%NoSave
%Mem=1900MB
#P OB98/GEN NMR

erre ene a

0 1
  C     -277.774    -477.250    -132.416
  O     -276.955    -476.099    -132.468
  H     -277.761    -477.766    -133.380
  H     -277.384    -477.927    -131.651
  H     -278.800    -476.974    -132.155
  P     -277.340    -474.988    -133.561
  C     -278.653    -473.558    -131.829
  O     -278.699    -474.324    -133.024
  C     -279.451    -472.273    -132.023
  O     -278.843    -471.462    -133.054
  C     -280.888    -472.505    -132.472
  O     -281.752    -472.814    -131.395
  C     -281.219    -471.150    -133.075
  O     -281.479    -470.202    -132.023
  C     -279.906    -470.802    -133.792
  N     -281.148    -469.617    -138.615
  C     -281.270    -468.932    -137.458
  N     -280.895    -469.308    -136.219
  C     -280.333    -470.526    -136.243
  C     -280.136    -471.342    -137.345
  C     -280.576    -470.844    -138.582
  N     -280.483    -471.553    -139.759
  N     -279.546    -472.532    -136.969
  C     -279.375    -472.427    -135.666
  N     -279.867    -471.247    -135.176
  O     -277.830    -475.847    -134.819
  O     -276.266    -474.010    -133.902
  H     -281.517    -469.320    -132.438
  H     -277.877    -475.285    -135.617
  H     -281.732    -467.951    -137.540
  H     -278.918    -473.179    -135.035
  H     -279.697    -469.726    -133.791
  H     -282.106    -471.174    -133.711
  H     -280.946    -473.266    -133.259
  H     -279.418    -471.703    -131.088
  H     -277.610    -473.313    -131.601
  H     -280.959    -471.177    -140.563
  H     -280.198    -472.519    -139.721
  H     -279.073    -474.142    -131.005
  P     -282.760    -474.053    -131.584
  C     -281.900    -475.870    -129.937
  O     -281.910    -475.379    -131.273
  O     -282.965    -474.108    -133.167
  O     -284.053    -473.920    -130.847
  H     -283.861    -474.426    -133.392
  H     -281.296    -476.752    -129.886
  H     -282.900    -476.104    -129.636
  H     -281.497    -475.123    -129.285

 6  7  8  9  10  11  12  13  14  15  25  28  32  33  34  35 0
 6-311+G(2d,p)
 ****
 36  39  40 0
 6-311+G(2d,p)
 ****
 1  2  3  4  5  16  17  18  19  20  21  22  23  24 0
 3-21G
 ****
 26  27  29  30  31  37  38  41  42  43  44  45  46  47 0
 3-21G
 ****
 48 0
 3-21G
 ****


