%nproc=1
%NoSave
%Mem=1900MB
#P OB98/GEN NMR

erre ene a

0 1
  C      -35.141     166.228    -402.617
  O      -36.000     166.488    -401.526
  H      -35.620     165.490    -403.267
  H      -34.196     165.812    -402.258
  H      -34.957     167.137    -403.194
  P      -35.605     167.641    -400.485
  C      -37.938     168.336    -399.624
  O      -36.727     167.649    -399.336
  C      -38.942     167.399    -400.304
  O      -39.021     166.171    -399.535
  C      -40.354     167.982    -400.405
  O      -40.939     167.578    -401.643
  C      -41.088     167.326    -399.252
  O      -42.494     167.244    -399.480
  C      -40.403     165.962    -399.177
  N      -41.583     161.782    -396.594
  C      -41.508     161.996    -397.955
  N      -41.812     160.949    -398.753
  N      -41.168     163.141    -398.492
  C      -40.872     164.094    -397.576
  C      -40.907     164.006    -396.203
  C      -41.304     162.741    -395.623
  O      -41.402     162.497    -394.426
  N      -40.556     165.199    -395.620
  C      -40.310     166.003    -396.636
  N      -40.501     165.385    -397.844
  O      -35.332     168.978    -401.099
  O      -34.317     167.069    -399.732
  H      -42.617     166.786    -400.341
  H      -33.505     167.511    -400.042
  H      -41.859     160.886    -396.234
  H      -40.000     167.037    -396.555
  H      -40.837     165.237    -399.872
  H      -40.925     167.902    -398.332
  H      -42.059     160.034    -398.408
  H      -40.360     169.070    -400.332
  H      -41.736     161.071    -399.753
  H      -38.553     167.133    -401.295
  H      -37.707     169.172    -400.290
  H      -38.359     168.730    -398.694
  P      -41.156     168.677    -402.797
  C      -42.421     167.293    -404.553
  O      -42.509     168.331    -403.589
  O      -39.966     168.935    -403.664
  O      -41.559     169.988    -401.966
  H      -41.196     170.775    -402.422
  H      -43.377     167.152    -405.013
  H      -42.119     166.386    -404.073
  H      -41.701     167.559    -405.299

 6  7  8  9  10  11  12  13  14  15  26  29  33  34 0
 6-311+G(2d,p)
 ****
 36  38  39  40  41 0
 6-311+G(2d,p)
 ****
 1  2  3  4  5  16  17  18  19  20  21  22  23  24  25 0
 3-21G
 ****
 27  28  30  31  32  35  37  42  43  44  45  46  47 0
 3-21G
 ****
 48  49 0
 3-21G
 ****


