%nproc=1
%NoSave
%Mem=1900MB
#P OB98/GEN NMR

erre ene a

0 1
  C       37.512    -100.781    1094.126
  O       36.610    -101.866    1094.053
  P       36.753    -102.848    1092.787
  C       35.731    -105.021    1093.762
  O       35.562    -103.914    1092.869
  C       34.851    -106.192    1093.300
  O       35.054    -106.434    1091.873
  C       35.166    -107.544    1093.993
  O       34.630    -107.580    1095.303
  C       34.502    -108.510    1093.008
  O       33.077    -108.541    1093.221
  C       34.811    -107.853    1091.643
  N       36.861    -112.078    1089.594
  C       35.659    -111.859    1090.175
  N       35.187    -110.710    1090.703
  C       36.107    -109.728    1090.608
  C       37.375    -109.827    1090.043
  C       37.751    -111.057    1089.511
  N       38.968    -111.299    1088.916
  N       38.040    -108.639    1090.119
  C       37.189    -107.815    1090.714
  N       35.995    -108.427    1090.990
  O       38.069    -103.717    1093.114
  O       36.889    -102.145    1091.464
  H       32.923    -108.968    1094.080
  H       38.568    -103.930    1092.293
  H       34.999    -112.714    1090.210
  H       37.367    -106.755    1090.909
  H       33.982    -107.927    1090.923
  H       34.888    -109.525    1093.102
  H       36.252    -107.712    1093.994
  H       33.798    -105.934    1093.450
  H       35.407    -104.747    1094.776
  H       39.197    -112.264    1088.692
  H       39.684    -110.583    1088.978
  H       36.783    -105.320    1093.782
  P       35.037    -108.849    1096.227
  C       34.257    -107.323    1098.139
  O       34.212    -108.621    1097.564
  O       36.535    -108.462    1096.664
  O       34.893    -110.192    1095.551
  H       36.617    -107.559    1096.985
  H       33.622    -107.289    1098.985
  H       33.926    -106.567    1097.413
  H       35.311    -107.099    1098.449
  H       37.312    -100.210    1095.008
  H       37.392    -100.159    1093.264
  H       38.515    -101.153    1094.161

 3  4  5  6  7  8  9  10  11  12  22  25  29  30  31  32 0
 6-311+G(2d,p)
 ****
 33  36  37 0
 6-311+G(2d,p)
 ****
 1  2  13  14  15  16  17  18  19  20  21  23  24  26 0
 3-21G
 ****
 27  28  34  35  38  39  40  41  42  43  44  45  46  47  48 0
 3-21G
 ****


