%nproc=1
%NoSave
%Mem=1900MB
#P OB98/GEN NMR

erre ene a

0 1
  C     -100.872     324.418    -207.160
  O     -101.883     323.691    -207.854
  P     -102.120     324.091    -209.394
  C     -102.733     326.252    -210.704
  O     -102.620     325.618    -209.437
  C     -103.878     327.267    -210.706
  O     -105.169     326.631    -210.794
  C     -103.918     328.129    -209.453
  O     -102.959     329.169    -209.544
  C     -105.360     328.637    -209.475
  O     -105.486     329.797    -210.322
  C     -106.126     327.448    -210.065
  N     -110.419     324.931    -209.097
  C     -110.113     325.785    -210.141
  N     -111.076     325.977    -211.064
  N     -108.962     326.395    -210.259
  C     -108.091     326.106    -209.260
  C     -108.276     325.254    -208.197
  C     -109.555     324.591    -208.065
  O     -109.868     323.805    -207.178
  N     -107.142     325.171    -207.422
  C     -106.323     326.064    -207.950
  N     -106.830     326.617    -209.099
  O     -103.418     323.245    -209.806
  O     -100.953     323.774    -210.275
  H     -105.077     330.562    -209.889
  H     -103.166     322.537    -210.428
  H     -111.325     324.490    -209.049
  H     -105.361     326.338    -207.550
  H     -106.886     327.781    -210.788
  H     -105.698     328.948    -208.478
  H     -111.985     325.535    -211.038
  H     -103.752     327.507    -208.563
  H     -110.866     326.599    -211.838
  H     -103.753     327.903    -211.593
  H     -102.902     325.498    -211.486
  H     -101.777     326.734    -210.942
  P     -101.632     329.042    -208.649
  C     -101.090     329.073    -206.115
  O     -102.080     329.054    -207.115
  O     -100.920     330.463    -208.854
  O     -100.720     327.924    -209.046
  H      -99.961     330.330    -209.002
  H     -101.484     329.591    -205.233
  H     -100.183     329.588    -206.449
  H     -100.832     328.047    -205.836
  H     -100.807     324.065    -206.152
  H     -101.119     325.459    -207.158
  H      -99.931     324.275    -207.649

 3  4  5  6  7  8  9  10  11  12  23  26  30  31 0
 6-311+G(2d,p)
 ****
 33  35  36  37  38 0
 6-311+G(2d,p)
 ****
 1  2  13  14  15  16  17  18  19  20  21  22  24  25 0
 3-21G
 ****
 27  28  29  32  34  39  40  41  42  43  44  45  46  47  48  49 0
 3-21G
 ****


