%nproc=1
%NoSave
%Mem=1900MB
#P OB98/GEN NMR

erre ene a

0 1
  C      114.088    -171.505      33.943
  O      115.455    -171.836      34.091
  H      113.716    -171.135      34.902
  H      113.518    -172.394      33.668
  H      113.957    -170.724      33.191
  P      116.292    -172.274      32.797
  C      115.778    -174.794      33.011
  O      115.621    -173.619      32.229
  C      115.630    -176.047      32.143
  O      114.393    -175.944      31.388
  C      116.772    -176.243      31.144
  O      117.059    -177.636      31.027
  C      116.195    -175.726      29.840
  O      116.812    -176.321      28.700
  C      114.717    -176.080      29.988
  N      110.811    -175.979      26.784
  C      111.358    -177.033      27.489
  N      110.795    -178.246      27.300
  N      112.372    -176.909      28.306
  C      112.821    -175.634      28.415
  C      112.366    -174.509      27.771
  C      111.257    -174.664      26.853
  O      110.740    -173.769      26.189
  N      113.094    -173.402      28.130
  C      113.989    -173.861      28.986
  N      113.873    -175.212      29.185
  O      117.772    -172.355      33.001
  O      115.911    -171.184      31.692
  H      116.285    -176.054      27.916
  H      116.640    -170.553      31.557
  H      110.038    -176.131      26.160
  H      114.740    -173.263      29.486
  H      114.500    -177.109      29.682
  H      116.335    -174.638      29.778
  H      109.997    -178.408      26.704
  H      117.674    -175.707      31.437
  H      111.157    -179.029      27.828
  H      115.529    -176.917      32.801
  H      115.008    -174.793      33.789
  H      116.764    -174.783      33.488
  P      118.383    -178.221      31.721
  C      119.550    -178.912      29.538
  O      119.611    -178.084      30.692
  O      118.236    -179.565      32.352
  O      118.726    -177.106      32.823
  H      119.109    -177.545      33.609
  H      120.412    -178.739      28.929
  H      118.667    -178.681      28.980
  H      119.525    -179.939      29.837

 6  7  8  9  10  11  12  13  14  15  26  29  33  34 0
 6-311+G(2d,p)
 ****
 36  38  39  40  41 0
 6-311+G(2d,p)
 ****
 1  2  3  4  5  16  17  18  19  20  21  22  23  24  25 0
 3-21G
 ****
 27  28  30  31  32  35  37  42  43  44  45  46  47 0
 3-21G
 ****
 48  49 0
 3-21G
 ****


