%nproc=1
%NoSave
%Mem=1900MB
#P OB98/GEN NMR

erre ene a

0 1
  C     1510.967      34.490     219.783
  O     1511.975      35.415     220.136
  H     1510.350      34.931     218.995
  H     1510.339      34.279     220.647
  H     1511.407      33.560     219.407
  P     1513.120      34.885     221.128
  C     1512.942      35.956     223.489
  O     1513.427      36.083     222.158
  C     1513.332      37.191     224.310
  O     1514.769      37.239     224.486
  C     1512.940      38.520     223.672
  O     1511.579      38.846     223.944
  C     1513.879      39.460     224.397
  O     1513.398      39.715     225.721
  C     1515.180      38.643     224.449
  N     1519.485      40.810     222.893
  C     1518.878      40.822     224.137
  N     1519.511      41.528     225.115
  N     1517.752      40.229     224.417
  C     1517.237      39.560     223.351
  C     1517.744      39.472     222.074
  C     1518.987      40.145     221.780
  O     1519.582      40.146     220.717
  N     1516.931      38.704     221.260
  C     1515.929      38.359     222.041
  N     1516.071      38.849     223.318
  O     1514.431      34.846     220.202
  O     1512.858      33.550     221.751
  H     1512.479      40.035     225.638
  H     1514.982      34.079     220.469
  H     1520.350      41.316     222.736
  H     1515.098      37.744     221.743
  H     1515.763      38.831     225.357
  H     1513.971      40.436     223.897
  H     1520.347      42.056     224.949
  H     1513.148      38.535     222.597
  H     1519.102      41.522     226.045
  H     1512.881      37.085     225.301
  H     1513.380      35.065     223.947
  H     1511.849      35.859     223.461
  P     1510.786      39.709     222.842
  C     1510.295      41.202     224.923
  O     1509.830      40.690     223.665
  O     1509.777      38.635     222.206
  O     1511.655      40.346     221.797
  H     1509.505      38.920     221.317
  H     1509.547      41.839     225.347
  H     1511.194      41.761     224.770
  H     1510.490      40.388     225.589

 6  7  8  9  10  11  12  13  14  15  26  29  33  34 0
 6-311+G(2d,p)
 ****
 36  38  39  40  41 0
 6-311+G(2d,p)
 ****
 1  2  3  4  5  16  17  18  19  20  21  22  23  24  25 0
 3-21G
 ****
 27  28  30  31  32  35  37  42  43  44  45  46  47 0
 3-21G
 ****
 48  49 0
 3-21G
 ****


