%nproc=1
%NoSave
%Mem=1900MB
#P OB98/GEN NMR

erre ene a

0 1
  C     -746.611     387.557     484.578
  O     -747.474     387.865     485.671
  P     -748.953     388.393     485.342
  C     -750.212     386.256     486.126
  O     -749.997     387.646     486.300
  C     -750.737     385.619     487.421
  O     -749.656     385.381     488.359
  C     -751.741     386.484     488.171
  O     -753.044     386.352     487.632
  C     -751.672     385.862     489.567
  O     -752.461     384.660     489.606
  C     -750.187     385.524     489.702
  N     -747.270     386.504     493.806
  C     -747.940     385.395     493.415
  N     -748.698     385.208     492.313
  C     -748.739     386.342     491.577
  C     -748.123     387.544     491.853
  C     -747.357     387.608     493.035
  N     -746.690     388.754     493.414
  N     -748.413     388.479     490.879
  C     -749.168     387.837     490.011
  N     -749.403     386.536     490.400
  O     -749.255     387.744     483.907
  O     -749.073     389.882     485.303
  H     -752.336     384.270     490.497
  H     -749.801     388.361     483.373
  H     -747.826     384.538     494.069
  H     -749.576     388.252     489.107
  H     -750.018     384.573     490.231
  H     -752.062     386.525     490.340
  H     -751.405     387.530     488.219
  H     -751.193     384.652     487.164
  H     -749.277     385.755     485.812
  H     -746.142     388.715     494.265
  H     -746.728     389.581     492.836
  H     -750.933     386.106     485.309
  P     -753.840     387.703     487.317
  C     -753.658     387.362     484.729
  O     -754.510     387.476     485.867
  O     -752.668     388.748     487.033
  O     -754.765     388.153     488.393
  H     -752.962     389.655     487.301
  H     -754.235     386.919     483.913
  H     -752.808     386.708     484.952
  H     -753.304     388.352     484.418
  H     -745.667     387.220     484.953
  H     -746.465     388.433     483.981
  H     -747.053     386.787     483.981

 3  4  5  6  7  8  9  10  11  12  22  25  29  30  31  32 0
 6-311+G(2d,p)
 ****
 33  36  37 0
 6-311+G(2d,p)
 ****
 1  2  13  14  15  16  17  18  19  20  21  23  24  26 0
 3-21G
 ****
 27  28  34  35  38  39  40  41  42  43  44  45  46  47  48 0
 3-21G
 ****


