%nproc=1
%NoSave
%Mem=1900MB
#P OB98/GEN NMR

erre ene a

0 1
  C       49.926    -156.041    -256.916
  O       51.237    -155.656    -256.550
  H       49.322    -155.141    -257.052
  H       49.473    -156.651    -256.129
  H       49.940    -156.598    -257.857
  P       52.320    -156.805    -256.289
  C       51.579    -157.279    -253.860
  O       51.673    -157.777    -255.188
  C       50.588    -158.113    -253.057
  O       49.243    -157.880    -253.519
  C       50.826    -159.619    -253.151
  O       51.862    -160.014    -252.268
  C       49.458    -160.140    -252.742
  O       49.307    -160.038    -251.312
  C       48.523    -159.142    -253.448
  N       44.679    -160.573    -256.426
  C       44.705    -160.327    -255.067
  N       43.546    -160.533    -254.402
  N       45.771    -159.934    -254.419
  C       46.867    -159.840    -255.203
  C       46.971    -160.075    -256.556
  C       45.772    -160.455    -257.272
  O       45.704    -160.668    -258.480
  N       48.266    -159.940    -256.993
  C       48.935    -159.587    -255.911
  N       48.133    -159.526    -254.796
  O       53.707    -156.347    -255.949
  O       52.287    -157.684    -257.623
  H       48.391    -160.303    -251.110
  H       52.954    -157.380    -258.264
  H       43.832    -160.892    -256.864
  H       49.994    -159.360    -255.884
  H       47.602    -158.964    -252.883
  H       49.298    -161.182    -253.011
  H       42.800    -161.093    -254.790
  H       51.023    -159.934    -254.181
  H       43.558    -160.406    -253.398
  H       50.632    -157.775    -252.012
  H       51.243    -156.237    -253.921
  H       52.560    -157.303    -253.373
  P       52.988    -161.066    -252.728
  C       51.617    -163.012    -251.724
  O       52.211    -162.457    -252.891
  O       54.190    -161.120    -251.849
  O       53.310    -160.670    -254.241
  H       54.021    -159.989    -254.328
  H       51.135    -163.934    -251.973
  H       50.895    -162.327    -251.331
  H       52.374    -163.193    -250.990

 6  7  8  9  10  11  12  13  14  15  26  29  33  34 0
 6-311+G(2d,p)
 ****
 36  38  39  40  41 0
 6-311+G(2d,p)
 ****
 1  2  3  4  5  16  17  18  19  20  21  22  23  24  25 0
 3-21G
 ****
 27  28  30  31  32  35  37  42  43  44  45  46  47 0
 3-21G
 ****
 48  49 0
 3-21G
 ****


