%nproc=1
%NoSave
%Mem=1900MB
#P OB98/GEN NMR

erre ene a

0 1
  C      -59.994     144.211    -497.006
  O      -60.102     143.159    -496.048
  P      -60.932     141.837    -496.435
  C      -59.972     139.865    -495.097
  O      -60.978     140.866    -495.157
  C      -58.739     140.319    -494.306
  O      -59.117     140.818    -492.996
  C      -57.688     139.219    -494.084
  O      -56.404     139.848    -494.142
  C      -57.997     138.753    -492.676
  O      -56.918     138.039    -492.091
  C      -58.350     140.088    -492.016
  N      -59.084     139.923    -490.772
  C      -58.442     139.239    -489.738
  O      -57.341     138.719    -489.933
  N      -59.077     139.138    -488.522
  C      -60.301     139.549    -488.407
  N      -60.888     139.453    -487.184
  C      -61.074     140.113    -489.530
  C      -60.402     140.290    -490.662
  O      -60.526     141.179    -497.712
  O      -62.440     142.378    -496.519
  H      -56.892     137.136    -492.471
  H      -62.912     141.887    -497.222
  H      -62.118     140.364    -489.407
  H      -60.876     140.701    -491.542
  H      -57.442     140.673    -491.811
  H      -58.871     138.090    -492.692
  H      -57.729     138.422    -494.835
  H      -58.279     141.155    -494.851
  H      -60.353     139.042    -486.426
  H      -59.668     139.599    -496.113
  H      -61.821     139.797    -486.996
  H      -60.402     138.953    -494.663
  P      -55.147     139.008    -494.685
  C      -53.974     140.639    -496.334
  O      -53.983     140.044    -495.055
  O      -55.664     138.558    -496.142
  O      -54.765     137.808    -493.885
  H      -55.188     137.747    -496.405
  H      -53.304     141.503    -496.316
  H      -54.971     140.982    -496.623
  H      -53.601     139.921    -497.072
  H      -59.414     145.010    -496.594
  H      -60.971     144.570    -497.254
  H      -59.515     143.842    -497.889

 3  4  5  6  7  8  9  10  11  12  13  23  27  28  29  30  32 0
 6-311+G(2d,p)
 ****
 34  35 0
 6-311+G(2d,p)
 ****
 1  2  14  15  16  17  18  19  20  21  22  24  25  26 0
 3-21G
 ****
 31  33  36  37  38  39  40  41  42  43  44  45  46 0
 3-21G
 ****


