%nproc=1
%NoSave
%Mem=1900MB
#P OB98/GEN NMR

erre ene a

0 1
  C     -351.818      21.512     -10.637
  O     -351.806      21.020      -9.309
  H     -352.759      21.226     -11.113
  H     -350.989      21.071     -11.202
  H     -351.734      22.602     -10.644
  P     -350.615      21.531      -8.370
  C     -348.321      20.430      -7.722
  O     -349.317      20.643      -8.716
  C     -347.095      19.765      -8.345
  O     -346.546      20.585      -9.396
  C     -345.929      19.580      -7.386
  O     -346.157      18.558      -6.441
  C     -344.804      19.263      -8.363
  O     -344.783      17.875      -8.714
  C     -345.182      20.133      -9.589
  N     -344.255      21.236      -9.772
  C     -343.137      20.953     -10.570
  O     -343.006      19.836     -11.076
  N     -342.185      21.927     -10.739
  C     -342.321      23.071     -10.142
  N     -341.326      23.984     -10.327
  C     -343.482      23.412      -9.294
  C     -344.405      22.455      -9.150
  O     -351.053      20.991      -6.931
  O     -350.363      23.003      -8.421
  H     -343.955      17.733      -9.219
  H     -351.309      20.052      -6.925
  H     -343.554      24.386      -8.827
  H     -345.288      22.618      -8.542
  H     -345.181      19.528     -10.505
  H     -343.823      19.503      -7.940
  H     -345.693      20.534      -6.888
  H     -347.409      18.805      -8.778
  H     -340.523      23.691     -10.871
  H     -348.717      19.809      -6.910
  H     -341.285      24.873      -9.850
  H     -348.057      21.404      -7.301
  P     -345.130      18.284      -5.239
  C     -342.972      16.885      -5.043
  O     -343.802      17.664      -5.902
  O     -345.675      17.493      -4.101
  O     -344.646      19.759      -4.839
  H     -344.211      20.257      -5.556
  H     -342.126      16.529      -5.592
  H     -343.529      16.053      -4.667
  H     -342.638      17.489      -4.225

 6  7  8  9  10  11  12  13  14  15  16  26  30  31  32  33  35 0
 6-311+G(2d,p)
 ****
 37  38 0
 6-311+G(2d,p)
 ****
 1  2  3  4  5  17  18  19  20  21  22  23  24  25 0
 3-21G
 ****
 27  28  29  34  36  39  40  41  42  43  44  45  46 0
 3-21G
 ****


