%nproc=1
%NoSave
%Mem=1900MB
#P OB98/GEN NMR

erre ene a

0 1
  C      189.794    -390.034    -141.770
  O      190.318    -390.312    -143.052
  H      190.357    -389.224    -141.299
  H      188.752    -389.725    -141.873
  H      189.839    -390.930    -141.142
  P      191.849    -390.797    -143.124
  C      194.036    -390.036    -141.939
  O      192.684    -389.728    -142.265
  C      194.811    -388.747    -141.701
  O      195.075    -388.080    -142.959
  C      194.077    -387.723    -140.836
  O      194.195    -388.005    -139.454
  C      194.835    -386.459    -141.209
  O      196.099    -386.430    -140.525
  C      195.044    -386.649    -142.714
  N      193.180    -382.258    -144.571
  C      194.232    -382.521    -143.763
  N      194.660    -383.717    -143.312
  C      193.876    -384.709    -143.775
  C      192.767    -384.592    -144.593
  C      192.423    -383.291    -145.005
  N      191.342    -383.015    -145.813
  N      192.194    -385.830    -144.827
  C      192.975    -386.679    -144.186
  N      193.998    -386.052    -143.525
  O      192.277    -390.467    -144.632
  O      192.094    -392.222    -142.758
  H      195.911    -386.200    -139.596
  H      193.055    -391.001    -144.883
  H      194.803    -381.655    -143.442
  H      192.839    -387.752    -144.171
  H      196.001    -386.237    -143.062
  H      194.300    -385.547    -140.930
  H      193.029    -387.615    -141.140
  H      195.782    -389.010    -141.254
  H      194.487    -390.585    -142.769
  H      191.074    -382.046    -145.896
  H      190.688    -383.759    -146.016
  H      194.052    -390.667    -141.041
  P      192.977    -387.554    -138.506
  C      192.322    -385.345    -137.302
  O      193.254    -386.017    -138.142
  O      193.285    -388.327    -137.141
  O      191.621    -387.863    -139.042
  H      192.461    -388.483    -136.636
  H      192.641    -384.335    -137.152
  H      192.267    -385.846    -136.358
  H      191.357    -385.349    -137.765

 6  7  8  9  10  11  12  13  14  15  25  28  32  33  34  35 0
 6-311+G(2d,p)
 ****
 36  39  40 0
 6-311+G(2d,p)
 ****
 1  2  3  4  5  16  17  18  19  20  21  22  23  24 0
 3-21G
 ****
 26  27  29  30  31  37  38  41  42  43  44  45  46  47 0
 3-21G
 ****
 48 0
 3-21G
 ****


