%nproc=1
%NoSave
%Mem=1900MB
#P OB98/GEN NMR

erre ene a

0 1
  C       62.922      32.268     -24.950
  O       61.790      32.950     -25.499
  P       61.274      32.480     -26.942
  C       62.114      32.600     -29.403
  O       62.337      32.952     -28.042
  C       62.730      33.653     -30.327
  O       62.023      34.903     -30.236
  C       64.171      33.984     -29.980
  O       65.042      32.977     -30.456
  C       64.360      35.333     -30.663
  O       64.831      35.185     -32.012
  C       62.937      35.937     -30.642
  N       62.835      37.102     -29.779
  C       63.462      38.263     -30.243
  O       64.075      38.252     -31.312
  N       63.400      39.395     -29.471
  C       62.789      39.362     -28.328
  N       62.765      40.514     -27.605
  C       62.138      38.151     -27.791
  C       62.200      37.066     -28.560
  O       60.016      33.432     -27.210
  O       60.894      31.036     -27.008
  H       64.812      36.086     -32.398
  H       59.342      32.964     -27.733
  H       61.648      38.171     -26.829
  H       61.750      36.131     -28.245
  H       62.637      36.240     -31.653
  H       65.098      35.947     -30.137
  H       64.278      34.100     -28.894
  H       62.667      33.287     -31.361
  H       63.224      41.325     -28.003
  H       61.044      32.513     -29.599
  H       62.325      40.600     -26.701
  H       62.550      31.612     -29.587
  P       65.687      31.981     -29.382
  C       67.170      32.281     -27.308
  O       66.527      32.923     -28.392
  O       66.852      31.279     -30.233
  O       64.784      30.982     -28.743
  H       67.267      30.570     -29.711
  H       67.863      32.987     -26.845
  H       67.733      31.411     -27.654
  H       66.429      31.977     -26.564
  H       63.156      32.680     -23.991
  H       63.761      32.386     -25.604
  H       62.695      31.228     -24.845

 3  4  5  6  7  8  9  10  11  12  13  21  23  27  28  29  30  32 0
 6-311+G(2d,p)
 ****
 34  35 0
 6-311+G(2d,p)
 ****
 1  2  14  15  16  17  18  19  20  22  24  25  26 0
 3-21G
 ****
 31  33  36  37  38  39  40  41  42  43  44  45  46 0
 3-21G
 ****


