%nproc=1
%NoSave
%Mem=1900MB
#P OB98/GEN NMR

erre ene a

0 1
  C      957.520    -572.403    -448.528
  O      958.847    -572.806    -448.823
  H      956.979    -572.287    -449.469
  H      957.533    -571.444    -448.005
  H      957.005    -573.154    -447.924
  P      959.808    -573.216    -447.607
  C      961.403    -571.204    -447.879
  O      960.451    -571.851    -447.046
  C      961.886    -569.909    -447.210
  O      960.861    -568.874    -447.346
  C      962.150    -570.044    -445.710
  O      963.366    -570.740    -445.461
  C      962.124    -568.594    -445.289
  O      963.369    -567.965    -445.544
  C      961.022    -568.008    -446.198
  N      959.747    -567.843    -445.498
  C      959.696    -566.850    -444.510
  O      960.663    -566.105    -444.247
  N      958.522    -566.743    -443.806
  C      957.480    -567.652    -443.889
  O      956.561    -567.661    -443.076
  C      957.547    -568.614    -444.968
  C      958.668    -568.689    -445.710
  O      960.795    -574.305    -447.903
  O      958.791    -573.639    -446.438
  H      958.754    -574.613    -446.384
  H      963.287    -567.041    -445.207
  H      958.501    -566.056    -443.066
  H      956.719    -569.288    -445.107
  H      958.765    -569.440    -446.487
  H      961.328    -567.024    -446.591
  H      961.895    -568.491    -444.220
  H      961.321    -570.584    -445.240
  H      962.789    -569.553    -447.744
  H      960.934    -570.961    -448.837
  H      962.253    -571.872    -448.057
  P      963.712    -571.234    -443.977
  C      965.980    -570.028    -443.805
  O      964.654    -570.131    -443.290
  O      964.220    -572.642    -443.894
  O      962.327    -571.073    -443.180
  H      962.134    -571.920    -442.718
  H      966.511    -569.266    -443.274
  H      965.940    -569.777    -444.844
  H      966.484    -570.964    -443.683

 6  7  8  9  10  11  12  13  14  15  16  27  31  32  33  34  35 0
 6-311+G(2d,p)
 ****
 36  37 0
 6-311+G(2d,p)
 ****
 1  2  3  4  5  17  18  19  20  21  22  23  24  25 0
 3-21G
 ****
 26  28  29  30  38  39  40  41  42  43  44  45 0
 3-21G
 ****


