%nproc=1
%NoSave
%Mem=1900MB
#P OB98/GEN NMR

erre ene a

0 1
  C     -124.317      19.377    1240.728
  O     -125.374      19.620    1239.822
  P     -125.280      20.828    1238.777
  C     -125.974      22.842    1240.202
  O     -126.372      21.921    1239.206
  C     -126.968      24.009    1240.284
  O     -126.823      24.860    1239.120
  C     -128.431      23.581    1240.297
  O     -128.803      23.098    1241.584
  C     -129.124      24.875    1239.878
  O     -129.272      25.759    1241.009
  C     -128.125      25.454    1238.872
  N     -130.483      27.472    1234.827
  C     -130.396      27.884    1236.109
  N     -129.771      27.269    1237.147
  C     -129.231      26.095    1236.743
  C     -129.267      25.539    1235.479
  C     -129.914      26.298    1234.475
  N     -129.967      25.920    1233.152
  N     -128.633      24.319    1235.467
  C     -128.216      24.134    1236.709
  N     -128.505      25.219    1237.497
  O     -125.286      20.432    1237.340
  O     -123.893      21.545    1239.157
  H     -129.848      25.321    1241.649
  H     -123.293      21.518    1238.388
  H     -130.868      28.835    1236.345
  H     -127.702      23.264    1237.070
  H     -128.000      26.537    1239.002
  H     -130.115      24.704    1239.475
  H     -128.603      22.819    1239.527
  H     -126.727      24.611    1241.171
  H     -124.979      23.218    1239.968
  H     -130.323      26.586    1232.490
  H     -129.307      25.221    1232.825
  H     -125.928      22.329    1241.176
  P     -129.382      21.608    1241.732
  C     -131.771      22.532    1241.943
  O     -130.765      21.737    1242.539
  O     -128.428      20.589    1242.255
  O     -129.872      21.240    1240.253
  H     -129.768      20.282    1240.108
  H     -131.548      23.589    1242.111
  H     -132.724      22.293    1242.413
  H     -131.842      22.335    1240.875
  H     -124.560      18.535    1241.342
  H     -124.172      20.238    1241.346
  H     -123.419      19.174    1240.182

 3  4  5  6  7  8  9  10  11  12  22  25  29  30  31  32 0
 6-311+G(2d,p)
 ****
 33  36  37 0
 6-311+G(2d,p)
 ****
 1  2  13  14  15  16  17  18  19  20  21  23  24  26 0
 3-21G
 ****
 27  28  34  35  38  39  40  41  42  43  44  45  46  47  48 0
 3-21G
 ****


