%nproc=1
%NoSave
%Mem=1900MB
#P OB98/GEN NMR

erre ene a

0 1
  C      119.232    -522.433    -244.477
  O      119.224    -521.022    -244.553
  H      120.028    -522.812    -245.124
  H      118.277    -522.834    -244.818
  H      119.429    -522.758    -243.450
  P      118.128    -520.265    -243.654
  C      118.485    -518.503    -241.768
  O      118.863    -518.974    -243.049
  C      119.595    -517.631    -241.166
  O      120.707    -518.491    -240.777
  C      120.163    -516.589    -242.140
  O      120.631    -515.470    -241.369
  C      121.349    -517.334    -242.733
  O      122.210    -516.449    -243.416
  C      121.883    -518.008    -241.470
  N      126.254    -520.218    -240.015
  C      125.564    -519.177    -239.510
  N      124.397    -518.653    -239.939
  C      123.938    -519.332    -241.010
  C      124.525    -520.419    -241.628
  C      125.748    -520.867    -241.092
  N      126.455    -521.925    -241.614
  N      123.755    -520.855    -242.699
  C      122.723    -520.039    -242.718
  N      122.791    -519.101    -241.721
  O      117.959    -521.237    -242.390
  O      116.824    -519.991    -244.323
  H      122.886    -516.942    -243.928
  H      117.197    -521.829    -242.527
  H      126.007    -518.694    -238.639
  H      121.902    -520.074    -243.429
  H      122.385    -517.292    -240.812
  H      121.017    -518.079    -243.466
  H      119.436    -516.240    -242.879
  H      119.223    -517.155    -240.247
  H      118.301    -519.373    -241.116
  H      117.562    -517.916    -241.846
  H      127.331    -522.172    -241.176
  H      126.098    -522.409    -242.425
  P      119.985    -514.014    -241.623
  C      119.876    -511.736    -240.333
  O      120.446    -513.038    -240.437
  O      118.441    -514.269    -241.268
  O      120.130    -513.477    -243.008
  H      117.889    -513.647    -241.768
  H      120.297    -511.229    -239.490
  H      118.817    -511.819    -240.206
  H      120.086    -511.182    -241.224

 6  7  8  9  10  11  12  13  14  15  25  28  32  33  34  35 0
 6-311+G(2d,p)
 ****
 36  37  40 0
 6-311+G(2d,p)
 ****
 1  2  3  4  5  16  17  18  19  20  21  22  23  24 0
 3-21G
 ****
 26  27  29  30  31  38  39 41  42  43  44  45  46  47  48 0
 3-21G
 ****


