%nproc=1
%NoSave
%Mem=1900MB
#P OB98/GEN NMR

erre ene a

0 1
  C      140.620    -706.216     541.396
  O      139.371    -706.647     541.952
  P      138.125    -705.641     541.827
  C      136.851    -707.244     540.227
  O      137.380    -705.947     540.443
  C      136.336    -707.377     538.795
  O      137.285    -706.904     537.819
  C      136.042    -708.817     538.385
  O      134.839    -709.280     538.982
  C      135.983    -708.686     536.875
  O      134.704    -708.154     536.465
  C      137.084    -707.647     536.598
  N      139.936    -709.020     532.581
  C      138.706    -708.438     532.658
  N      138.017    -708.125     533.768
  C      138.722    -708.428     534.871
  C      139.970    -709.015     534.943
  C      140.591    -709.316     533.729
  N      141.830    -709.920     533.634
  N      140.362    -709.180     536.268
  C      139.361    -708.721     536.978
  N      138.351    -708.255     536.189
  O      138.832    -704.226     541.581
  O      137.242    -705.618     543.040
  H      134.016    -708.739     536.854
  H      138.747    -703.663     542.367
  H      138.233    -708.220     531.711
  H      139.308    -708.733     538.059
  H      136.792    -706.928     535.820
  H      136.119    -709.643     536.363
  H      136.873    -709.474     538.673
  H      135.416    -706.777     538.711
  H      136.048    -707.450     540.937
  H      142.165    -710.187     532.709
  H      142.281    -710.235     534.476
  H      137.647    -707.986     540.422
  P      134.948    -710.214     540.295
  C      134.060    -708.232     541.684
  O      135.129    -709.150     541.502
  O      136.430    -710.801     540.140
  O      133.857    -711.208     540.453
  H      137.078    -710.116     539.889
  H      134.292    -707.606     542.549
  H      133.128    -708.762     541.887
  H      133.948    -707.595     540.789
  H      141.359    -706.975     541.547
  H      140.932    -705.313     541.878
  H      140.501    -706.038     540.348

 3  4  5  6  7  8  9  10  11  12  22  25  29  30  31  32 0
 6-311+G(2d,p)
 ****
 33  36  37 0
 6-311+G(2d,p)
 ****
 1  2  13  14  15  16  17  18  19  20  21  23  24  26 0
 3-21G
 ****
 27  28  34  35  38  39  40  41  42  43  44  45  46  47  48 0
 3-21G
 ****


