%nproc=1
%NoSave
%Mem=1900MB
#P OB98/GEN NMR

erre ene a

0 1
  C     -213.947     874.842    -329.942
  O     -214.538     874.746    -331.222
  P     -215.550     875.874    -331.740
  C     -213.837     877.412    -332.901
  O     -214.696     877.230    -331.778
  C     -214.282     878.608    -333.744
  O     -215.610     878.388    -334.269
  C     -214.353     879.917    -332.973
  O     -213.051     880.452    -332.788
  C     -215.252     880.742    -333.882
  O     -214.512     881.328    -334.962
  C     -216.244     879.679    -334.407
  N     -217.528     879.728    -333.731
  C     -218.456     880.637    -334.246
  O     -218.160     881.355    -335.197
  N     -219.688     880.738    -333.649
  C     -219.954     880.015    -332.596
  N     -221.187     880.172    -332.041
  C     -218.990     879.072    -332.003
  C     -217.810     878.979    -332.610
  O     -216.847     875.950    -331.009
  O     -215.719     875.521    -333.298
  H     -213.765     881.805    -334.552
  H     -216.291     874.721    -333.422
  H     -219.253     878.501    -331.122
  H     -217.040     878.313    -332.237
  H     -216.419     879.820    -335.487
  H     -215.742     881.561    -333.344
  H     -214.847     879.758    -332.011
  H     -213.592     878.702    -334.595
  H     -221.805     880.851    -332.457
  H     -213.874     876.502    -333.512
  H     -221.479     879.690    -331.207
  H     -212.807     877.547    -332.553
  P     -212.786     881.525    -331.623
  C     -212.907     879.951    -329.602
  O     -213.533     881.007    -330.307
  O     -213.059     882.945    -331.989
  O     -211.242     881.313    -331.273
  H     -210.820     882.191    -331.179
  H     -213.309     879.917    -328.585
  H     -211.823     880.102    -329.549
  H     -213.119     879.000    -330.097
  H     -213.307     874.000    -329.781
  H     -214.713     874.856    -329.195
  H     -213.373     875.743    -329.881

 3  4  5  6  7  8  9  10  11  12  13  23  27  28  29  30  32 0
 6-311+G(2d,p)
 ****
 34  35 0
 6-311+G(2d,p)
 ****
 1  2  14  15  16  17  18  19  20  21  22  24  25  26 0
 3-21G
 ****
 31  33  36  37  38  39  40  41  42  43  44  45  46 0
 3-21G
 ****


