%nproc=1
%NoSave
%Mem=1900MB
#P OB98/GEN NMR

erre ene a

0 1
  C        0.968    -207.174    -112.842
  O        2.292    -207.250    -113.338
  P        3.118    -208.593    -113.034
  C        3.540    -209.920    -110.837
  O        3.280    -208.656    -111.441
  C        4.390    -209.747    -109.582
  O        5.707    -209.289    -109.938
  C        3.847    -208.716    -108.605
  O        2.766    -209.250    -107.867
  C        5.084    -208.417    -107.766
  O        5.212    -209.354    -106.686
  C        6.233    -208.591    -108.788
  N        6.842    -207.325    -109.164
  C        7.749    -206.788    -108.244
  O        7.973    -207.373    -107.183
  N        8.345    -205.585    -108.533
  C        8.055    -204.973    -109.638
  N        8.680    -203.786    -109.874
  C        7.089    -205.496    -110.624
  C        6.520    -206.663    -110.324
  O        4.589    -208.238    -113.547
  O        2.570    -209.822    -113.680
  H        6.009    -209.075    -106.187
  H        5.072    -209.047    -113.804
  H        6.883    -204.946    -111.531
  H        5.798    -207.117    -110.992
  H        7.019    -209.233    -108.370
  H        5.042    -207.419    -107.319
  H        3.534    -207.809    -109.138
  H        4.486    -210.726    -109.095
  H        9.331    -203.450    -109.175
  H        4.079    -210.554    -111.545
  H        8.539    -203.245    -110.715
  H        2.585    -210.400    -110.597
  P        1.710    -208.220    -107.243
  C        1.911    -206.228    -105.640
  O        2.545    -207.379    -106.164
  O        0.821    -209.174    -106.308
  O        0.877    -207.435    -108.199
  H        0.070    -208.673    -105.943
  H        2.512    -205.843    -104.814
  H        0.914    -206.477    -105.266
  H        1.836    -205.458    -106.413
  H        0.538    -206.233    -113.115
  H        0.981    -207.264    -111.776
  H        0.384    -207.967    -113.260

 3  4  5  6  7  8  9  10  11  12  13  21  23  27  28  29  30  32 0
 6-311+G(2d,p)
 ****
 34  35 0
 6-311+G(2d,p)
 ****
 1  2  14  15  16  17  18  19  20  22  24  25  26 0
 3-21G
 ****
 31  33  36  37  38  39  40  41  42  43  44  45  46 0
 3-21G
 ****


