%nproc=1
%NoSave
%Mem=1900MB
#P OB98/GEN NMR

erre ene a

0 1
  C       62.824     330.628    -417.162
  O       62.153     331.864    -416.934
  P       63.063     333.177    -416.789
  C       62.331     333.764    -414.338
  O       62.369     334.135    -415.705
  C       61.122     334.395    -413.628
  O       61.290     335.839    -413.628
  C       59.774     334.151    -414.298
  O       58.736     334.410    -413.349
  C       59.754     335.225    -415.363
  O       58.436     335.462    -415.845
  C       60.428     336.414    -414.648
  N       61.225     337.272    -415.552
  C       60.548     338.089    -416.457
  O       59.326     338.124    -416.557
  N       61.332     338.836    -417.298
  C       62.693     338.886    -417.294
  O       63.352     339.502    -418.122
  C       63.352     338.122    -416.223
  C       62.604     337.360    -415.425
  O       62.842     333.943    -418.181
  O       64.500     332.893    -416.529
  H       57.905     335.794    -415.080
  H       63.637     333.845    -418.745
  H       60.856     339.372    -418.010
  H       64.427     338.196    -416.139
  H       63.083     336.771    -414.642
  H       59.690     337.054    -414.158
  H       60.359     334.909    -416.214
  H       59.648     333.154    -414.715
  H       61.102     334.068    -412.584
  H       63.256     334.057    -413.845
  H       62.269     332.672    -414.260
  P       57.883     333.166    -412.798
  C       55.551     334.013    -413.459
  O       56.448     333.742    -412.398
  O       58.557     332.311    -411.769
  O       57.567     332.333    -414.139
  H       57.320     331.420    -413.908
  H       54.529     333.887    -413.106
  H       55.719     333.344    -414.309
  H       55.691     335.050    -413.786
  H       62.104     329.840    -417.239
  H       63.488     330.427    -416.347
  H       63.384     330.689    -418.072

 3  4  5  6  7  8  9  10  11  12  13  23  28  29  30  31  32 0
 6-311+G(2d,p)
 ****
 33  34 0
 6-311+G(2d,p)
 ****
 1  2  14  15  16  17  18  19  20  21  22  24  25  26  27 0
 3-21G
 ****
 35  36  37  38  39  40  41  42  43  44  45 0
 3-21G
 ****


