%nproc=1
%NoSave
%Mem=1900MB
#P OB98/GEN NMR

erre ene a

0 1
  C      -14.267    -158.427    -270.509
  O      -13.701    -157.124    -270.654
  P      -14.546    -155.917    -270.015
  C      -15.511    -154.759    -272.123
  O      -15.766    -155.601    -271.010
  C      -16.808    -154.143    -272.658
  O      -17.450    -153.323    -271.634
  C      -16.603    -153.246    -273.890
  O      -17.759    -153.417    -274.720
  C      -16.582    -151.859    -273.270
  O      -16.772    -150.820    -274.218
  C      -17.677    -152.024    -272.224
  N      -18.449    -147.057    -271.367
  C      -18.515    -147.799    -272.493
  N      -18.291    -149.122    -272.639
  C      -17.975    -149.680    -271.459
  C      -17.865    -149.052    -270.227
  C      -18.121    -147.670    -270.206
  N      -18.035    -146.900    -269.069
  N      -17.494    -149.960    -269.247
  C      -17.314    -151.093    -269.901
  N      -17.672    -150.991    -271.216
  O      -13.577    -154.655    -270.179
  O      -14.940    -156.151    -268.594
  H      -16.548    -149.958    -273.813
  H      -13.112    -154.470    -269.344
  H      -18.781    -147.259    -273.397
  H      -16.933    -152.009    -269.473
  H      -18.680    -152.035    -272.671
  H      -15.610    -151.691    -272.792
  H      -15.708    -153.491    -274.467
  H      -17.501    -154.959    -272.903
  H      -15.029    -155.328    -272.922
  H      -18.232    -145.915    -269.153
  H      -17.781    -147.317    -268.186
  H      -14.798    -153.982    -271.828
  P      -17.614    -154.245    -276.087
  C      -15.935    -152.492    -276.914
  O      -16.155    -153.862    -276.637
  O      -18.550    -153.376    -277.057
  O      -17.971    -155.690    -276.024
  H      -18.329    -152.430    -277.003
  H      -14.887    -152.358    -277.200
  H      -16.140    -151.888    -276.027
  H      -16.570    -152.172    -277.744
  H      -13.624    -159.148    -270.969
  H      -15.227    -158.453    -270.980
  H      -14.374    -158.656    -269.469

 3  4  5  6  7  8  9  10  11  12  22  25  29  30  31  32 0
 6-311+G(2d,p)
 ****
 33  36  37 0
 6-311+G(2d,p)
 ****
 1  2  13  14  15  16  17  18  19  20  21  23  24  26 0
 3-21G
 ****
 27  28  34  35  38  39  40  41  42  43  44  45  46  47  48 0
 3-21G
 ****


