%nproc=1
%NoSave
%Mem=1900MB
#P OB98/GEN NMR

erre ene a

0 1
  C     -224.807    -365.385      52.349
  O     -225.340    -364.254      53.040
  P     -226.710    -364.240      53.860
  C     -229.254    -363.948      53.249
  O     -227.926    -364.231      52.820
  C     -230.256    -364.133      52.097
  O     -229.831    -363.292      50.974
  C     -230.310    -365.577      51.587
  O     -231.633    -366.032      51.313
  C     -229.323    -365.562      50.426
  O     -229.509    -366.641      49.518
  C     -229.522    -364.158      49.858
  N     -226.851    -364.195      45.503
  C     -227.928    -364.975      45.880
  N     -228.337    -365.909      44.989
  N     -228.529    -364.875      47.033
  C     -227.971    -363.964      47.861
  C     -226.896    -363.136      47.606
  C     -226.266    -363.224      46.308
  O     -225.325    -362.540      45.918
  N     -226.620    -362.334      48.688
  C     -227.509    -362.686      49.596
  N     -228.362    -363.671      49.137
  O     -226.784    -363.267      54.989
  O     -226.788    -365.726      54.491
  H     -229.548    -367.468      50.043
  H     -227.258    -365.633      55.345
  H     -226.438    -364.301      44.592
  H     -227.599    -362.257      50.583
  H     -230.354    -364.117      49.150
  H     -228.315    -365.669      50.849
  H     -227.839    -366.125      44.133
  H     -229.950    -366.275      52.355
  H     -228.973    -366.620      45.351
  H     -231.240    -363.782      52.430
  H     -229.249    -362.902      53.577
  H     -229.519    -364.565      54.106
  P     -232.370    -367.344      51.856
  C     -233.437    -369.417      50.796
  O     -232.437    -368.424      50.680
  O     -233.903    -366.909      52.032
  O     -231.825    -367.867      53.156
  H     -234.163    -366.989      52.977
  H     -233.212    -370.233      50.094
  H     -234.406    -368.990      50.537
  H     -233.471    -369.826      51.809
  H     -223.880    -365.116      51.886
  H     -225.501    -365.704      51.599
  H     -224.641    -366.182      53.044

 3  4  5  6  7  8  9  10  11  12  23  26  30  31 0
 6-311+G(2d,p)
 ****
 33  35  36  37  38 0
 6-311+G(2d,p)
 ****
 1  2  13  14  15  16  17  18  19  20  21  22  24  25 0
 3-21G
 ****
 27  28  29  32  34  39  40  41  42  43  44  45  46  47  48  49 0
 3-21G
 ****


