%nproc=1
%NoSave
%Mem=1900MB
#P OB98/GEN NMR

erre ene a

0 1
  C      261.443    -923.011    1034.667
  O      260.516    -923.565    1035.585
  H      262.184    -922.429    1035.235
  H      260.930    -922.347    1033.972
  H      261.966    -923.805    1034.121
  P      259.420    -924.606    1035.043
  C      258.635    -925.186    1037.444
  O      258.265    -924.679    1036.155
  C      257.492    -924.978    1038.430
  O      257.213    -923.554    1038.552
  C      256.177    -925.623    1038.022
  O      256.199    -927.005    1038.232
  C      255.190    -924.844    1038.887
  O      255.154    -925.395    1040.222
  C      255.818    -923.427    1038.898
  N      255.121    -922.531    1037.992
  C      254.162    -921.696    1038.541
  O      253.886    -921.668    1039.758
  N      253.460    -920.895    1037.659
  C      253.551    -920.975    1036.304
  O      252.740    -920.433    1035.556
  C      254.609    -921.810    1035.771
  C      255.335    -922.567    1036.620
  O      259.948    -925.923    1034.587
  O      258.705    -923.806    1033.851
  H      259.063    -924.144    1033.000
  H      254.797    -926.299    1040.130
  H      252.745    -920.309    1038.066
  H      254.755    -921.845    1034.691
  H      256.110    -923.219    1036.244
  H      255.783    -923.012    1039.921
  H      254.183    -924.878    1038.492
  H      255.961    -925.385    1036.965
  H      257.827    -925.344    1039.424
  H      259.533    -924.653    1037.779
  H      258.878    -926.250    1037.345
  P      256.331    -928.013    1036.969
  C      254.873    -929.880    1037.998
  O      255.017    -928.928    1036.931
  O      257.622    -928.767    1036.863
  O      256.123    -927.050    1035.690
  H      256.846    -927.229    1035.054
  H      253.964    -930.429    1037.866
  H      254.845    -929.364    1038.935
  H      255.703    -930.556    1037.987

 6  7  8  9  10  11  12  13  14  15  16  27  31  32  33  34  35 0
 6-311+G(2d,p)
 ****
 36  37 0
 6-311+G(2d,p)
 ****
 1  2  3  4  5  17  18  19  20  21  22  23  24  25 0
 3-21G
 ****
 26  28  29  30  38  39  40  41  42  43  44  45 0
 3-21G
 ****


