%nproc=1
%NoSave
%Mem=1900MB
#P OB98/GEN NMR

erre ene a

0 1
  C      136.697    -388.197    -184.107
  O      135.992    -388.127    -182.889
  H      136.295    -389.026    -184.696
  H      137.758    -388.388    -183.913
  H      136.582    -387.269    -184.678
  P      136.288    -386.848    -181.956
  C      134.048    -385.549    -182.138
  O      135.400    -385.643    -182.548
  C      133.245    -384.723    -183.146
  O      133.247    -385.384    -184.441
  C      131.785    -384.522    -182.772
  O      131.615    -383.449    -181.855
  C      131.190    -384.185    -184.128
  O      131.502    -382.818    -184.476
  C      131.943    -385.152    -185.053
  N      127.831    -387.460    -186.920
  C      128.159    -386.118    -186.889
  N      127.260    -385.268    -187.424
  N      129.267    -385.648    -186.374
  C      130.073    -386.612    -185.870
  C      129.860    -387.977    -185.838
  C      128.633    -388.479    -186.418
  O      128.302    -389.660    -186.490
  N      130.903    -388.639    -185.242
  C      131.741    -387.671    -184.903
  N      131.277    -386.425    -185.253
  O      137.782    -386.436    -182.359
  O      136.166    -387.080    -180.488
  H      130.914    -382.253    -183.942
  H      138.246    -386.110    -181.567
  H      126.960    -387.764    -187.314
  H      132.687    -387.835    -184.400
  H      132.123    -384.722    -186.048
  H      130.101    -384.275    -184.153
  H      126.365    -385.553    -187.788
  H      131.326    -385.452    -182.397
  H      127.490    -384.279    -187.447
  H      133.749    -383.760    -183.272
  H      134.002    -385.060    -181.158
  H      133.626    -386.554    -182.053
  P      130.712    -383.710    -180.553
  C      132.334    -382.902    -178.694
  O      131.743    -384.010    -179.361
  O      130.064    -385.155    -180.847
  O      129.676    -382.676    -180.280
  H      129.243    -385.259    -180.336
  H      132.993    -383.256    -177.929
  H      131.567    -382.301    -178.253
  H      132.886    -382.315    -179.398

 6  7  8  9  10  11  12  13  14  15  26  29  33  34 0
 6-311+G(2d,p)
 ****
 36  38  39  40  41 0
 6-311+G(2d,p)
 ****
 1  2  3  4  5  16  17  18  19  20  21  22  23  24  25 0
 3-21G
 ****
 27  28  30  31  32  35  37  42  43  44  45  46  47 0
 3-21G
 ****
 48  49 0
 3-21G
 ****


