%nproc=1
%NoSave
%Mem=1900MB
#P OB98/GEN NMR

erre ene a

0 1
  C     -255.561     346.228    -140.247
  O     -254.658     346.177    -139.154
  P     -255.214     345.716    -137.724
  C     -254.378     343.313    -138.274
  O     -255.431     344.125    -137.777
  C     -253.541     342.751    -137.120
  O     -254.433     342.187    -136.110
  C     -252.566     341.643    -137.537
  O     -251.398     341.756    -136.703
  C     -253.326     340.379    -137.171
  O     -252.492     339.239    -137.039
  C     -253.994     340.834    -135.869
  N     -255.102     339.973    -135.463
  C     -254.815     338.920    -134.598
  O     -253.687     338.680    -134.159
  N     -255.862     338.094    -134.284
  C     -257.117     338.160    -134.814
  O     -257.981     337.317    -134.586
  C     -257.368     339.284    -135.727
  C     -256.367     340.129    -136.005
  O     -256.702     346.306    -137.701
  O     -254.402     346.192    -136.561
  H     -252.046     339.297    -136.175
  H     -256.734     347.129    -137.182
  H     -255.671     337.333    -133.653
  H     -258.362     339.379    -136.146
  H     -256.516     340.963    -136.687
  H     -253.256     340.877    -135.057
  H     -254.069     340.164    -137.949
  H     -252.284     341.677    -138.596
  H     -252.999     343.578    -136.651
  H     -253.737     343.911    -138.924
  H     -254.796     342.498    -138.877
  P     -250.001     341.231    -137.298
  C     -249.544     343.492    -138.530
  O     -249.699     342.091    -138.615
  O     -250.434     339.794    -137.860
  O     -248.902     341.168    -136.277
  H     -251.283     339.819    -138.330
  H     -249.059     343.792    -137.596
  H     -250.520     343.971    -138.602
  H     -248.924     343.832    -139.369
  H     -255.041     346.551    -141.124
  H     -256.350     346.916    -140.026
  H     -255.973     345.255    -140.415

 3  4  5  6  7  8  9  10  11  12  13  23  28  29  30  31  32 0
 6-311+G(2d,p)
 ****
 33  34 0
 6-311+G(2d,p)
 ****
 1  2  14  15  16  17  18  19  20  21  22  24  25  26 0
 3-21G
 ****
 27  35  36  37  38  39  40  41  42  43  44  45 0
 3-21G
 ****


