%nproc=1
%NoSave
%Mem=1900MB
#P OB98/GEN NMR

erre ene a

0 1
  C      261.902     856.618     355.913
  O      261.144     857.531     355.136
  H      261.268     855.774     356.181
  H      262.252     857.106     356.823
  H      262.760     856.242     355.336
  P      261.950     858.752     354.473
  C      260.749     860.970     355.206
  O      260.863     859.915     354.265
  C      259.641     861.938     354.790
  O      259.740     862.197     353.367
  C      258.225     861.409     355.056
  O      257.401     862.505     355.467
  C      257.761     860.898     353.705
  O      256.348     860.860     353.600
  C      258.481     861.857     352.745
  N      258.666     861.297     351.408
  C      257.905     861.849     350.381
  O      257.111     862.755     350.627
  N      258.023     861.332     349.114
  C      258.787     860.309     348.910
  N      258.852     859.836     347.626
  C      259.576     859.659     349.979
  C      259.489     860.209     351.193
  O      262.208     858.208     352.996
  O      263.183     859.152     355.218
  H      255.999     861.750     353.874
  H      261.455     857.735     352.606
  H      260.196     858.795     349.765
  H      260.020     859.798     352.030
  H      257.900     862.803     352.650
  H      258.142     859.872     353.550
  H      258.191     860.628     355.819
  H      259.799     862.909     355.287
  H      258.284     860.290     346.938
  H      261.691     861.521     355.271
  H      259.375     859.016     347.370
  H      260.529     860.534     356.178
  P      257.090     862.718     357.017
  C      254.730     861.688     356.836
  O      255.498     862.809     357.236
  O      257.885     863.780     357.702
  O      257.425     861.265     357.653
  H      257.858     861.417     358.520
  H      253.695     861.876     357.034
  H      255.047     860.825     357.383
  H      254.867     861.517     355.789

 6  7  8  9  10  11  12  13  14  15  16  26  30  31  32  33  35 0
 6-311+G(2d,p)
 ****
 37  38 0
 6-311+G(2d,p)
 ****
 1  2  3  4  5  17  18  19  20  21  22  23  24  25 0
 3-21G
 ****
 27  28  29  34  36  39  40  41  42  43  44  45  46 0
 3-21G
 ****


