%nproc=1
%NoSave
%Mem=1900MB
#P OB98/GEN NMR

erre ene a

0 1
  C     -893.728     588.684    -485.747
  O     -894.018     589.581    -484.691
  H     -893.258     587.790    -485.328
  H     -893.038     589.144    -486.462
  H     -894.648     588.383    -486.263
  P     -894.708     590.979    -485.035
  C     -894.868     591.435    -482.485
  O     -894.408     591.900    -483.756
  C     -894.458     592.396    -481.381
  O     -893.028     592.382    -481.169
  C     -894.788     593.869    -481.665
  O     -896.188     594.173    -481.544
  C     -893.958     594.536    -480.578
  O     -894.618     594.374    -479.306
  C     -892.658     593.702    -480.657
  N     -891.638     594.322    -481.508
  C     -891.028     595.476    -481.004
  O     -891.328     595.931    -479.913
  N     -890.058     596.103    -481.780
  C     -889.778     595.627    -482.964
  N     -888.838     596.295    -483.679
  C     -890.418     594.432    -483.538
  C     -891.338     593.838    -482.764
  O     -896.138     590.917    -485.466
  O     -893.738     591.647    -486.129
  H     -894.108     594.906    -478.660
  H     -894.118     592.525    -486.396
  H     -890.168     594.094    -484.533
  H     -891.858     592.947    -483.116
  H     -892.238     593.546    -479.643
  H     -893.818     595.600    -480.745
  H     -894.408     594.181    -482.648
  H     -894.938     592.051    -480.450
  H     -888.408     597.109    -483.274
  H     -894.428     590.438    -482.313
  H     -888.618     596.059    -484.648
  H     -895.958     591.333    -482.484
  P     -896.788     595.183    -482.652
  C     -899.208     594.949    -481.693
  O     -898.118     595.792    -482.000
  O     -897.328     594.176    -483.769
  O     -895.808     596.200    -483.189
  H     -896.678     594.118    -484.508
  H     -900.000     595.530    -481.268
  H     -898.896     594.204    -480.991
  H     -899.555     594.474    -482.587

 6  7  8  9  10  11  12  13  14  15  16  26  30  31  32  33  35 0
 6-311+G(2d,p)
 ****
 37  38 0
 6-311+G(2d,p)
 ****
 1  2  3  4  5  17  18  19  20  21  22  23  24  25 0
 3-21G
 ****
 27  28  29  34  36  39  40  41  42  43  44  45  46 0
 3-21G
 ****


