%nproc=1
%NoSave
%Mem=1900MB
#P OB98/GEN NMR

erre ene a

0 1
  C      201.250      57.964    -152.144
  O      201.535      56.693    -151.595
  H      200.324      58.337    -151.699
  H      201.119      57.903    -153.227
  H      202.057      58.664    -151.906
  P      202.702      55.823    -152.271
  C      201.235      53.868    -153.103
  O      201.997      55.015    -153.469
  C      199.968      53.757    -153.955
  O      199.245      55.004    -153.933
  C      200.240      53.481    -155.426
  O      200.748      52.190    -155.687
  C      198.945      53.929    -156.088
  O      197.942      52.917    -156.113
  C      198.497      55.086    -155.163
  N      198.646      56.388    -155.805
  C      197.570      56.809    -156.577
  O      196.551      56.139    -156.747
  N      197.716      58.021    -157.194
  C      198.830      58.808    -157.153
  O      198.914      59.867    -157.762
  C      199.946      58.298    -156.341
  C      199.805      57.129    -155.712
  O      203.492      54.955    -151.338
  O      203.589      56.910    -153.040
  H      198.309      52.161    -156.609
  H      204.475      56.545    -153.274
  H      196.942      58.348    -157.750
  H      200.846      58.896    -156.287
  H      200.617      56.730    -155.108
  H      197.441      54.967    -154.891
  H      199.111      54.239    -157.123
  H      201.014      54.181    -155.765
  H      199.325      52.984    -153.519
  H      200.952      53.978    -152.051
  H      201.849      52.967    -153.213
  P      202.221      51.923    -156.242
  C      201.266      51.245    -158.561
  O      202.188      52.060    -157.843
  O      202.972      50.782    -155.636
  O      202.975      53.282    -155.803
  H      203.898      53.048    -155.585
  H      201.356      51.443    -159.609
  H      200.269      51.467    -158.241
  H      201.480      50.214    -158.373

 6  7  8  9  10  11  12  13  14  15  16  26  31  32  33  34  35 0
 6-311+G(2d,p)
 ****
 36  37 0
 6-311+G(2d,p)
 ****
 1  2  3  4  5  17  18  19  20  21  22  23  24  25 0
 3-21G
 ****
 27  28  29  30  38  39  40  41  42  43  44  45 0
 3-21G
 ****


