%nproc=1
%NoSave
%Mem=1900MB
#P OB98/GEN NMR

erre ene a

0 1
  C     -346.315      -0.785     122.845
  O     -347.503      -0.218     123.425
  P     -347.603      -0.077     125.023
  C     -349.013      -2.280     125.109
  O     -347.943      -1.517     125.644
  C     -349.384      -3.417     126.067
  O     -348.289      -4.348     126.195
  C     -349.686      -2.961     127.491
  O     -350.975      -2.382     127.600
  C     -349.545      -4.272     128.259
  O     -350.749      -5.053     128.174
  C     -348.393      -4.962     127.498
  N     -347.128      -4.907     128.220
  C     -346.553      -6.128     128.559
  O     -347.086      -7.209     128.329
  N     -345.345      -6.062     129.204
  C     -344.708      -4.920     129.601
  O     -343.640      -4.924     130.198
  C     -345.404      -3.661     129.291
  C     -346.564      -3.715     128.627
  O     -348.999       0.697     125.201
  O     -346.495       0.678     125.680
  H     -351.016      -5.053     127.235
  H     -348.979       1.219     126.023
  H     -344.898      -6.934     129.433
  H     -344.945      -2.732     129.604
  H     -347.091      -2.792     128.390
  H     -348.642      -6.016     127.313
  H     -349.337      -4.112     129.324
  H     -348.912      -2.261     127.830
  H     -350.245      -3.956     125.648
  H     -348.710      -2.706     124.150
  H     -349.873      -1.618     124.945
  P     -351.085      -0.807     127.289
  C     -350.948       0.046     129.755
  O     -350.323      -0.084     128.497
  O     -352.645      -0.554     127.564
  O     -350.632      -0.455     125.915
  H     -352.988      -1.121     128.276
  H     -351.604      -0.804     129.972
  H     -351.536       0.972     129.772
  H     -350.176       0.103     130.529
  H     -346.413      -0.805     121.780
  H     -346.181      -1.782     123.210
  H     -345.468      -0.190     123.114

 3  4  5  6  7  8  9  10  11  12  13  23  28  29  30  31  32 0
 6-311+G(2d,p)
 ****
 33  34 0
 6-311+G(2d,p)
 ****
 1  2  14  15  16  17  18  19  20  21  22  24  25  26 0
 3-21G
 ****
 27  35  36  37  38  39  40  41  42  43  44  45 0
 3-21G
 ****


