%nproc=1
%NoSave
%Mem=1900MB
#P OB98/GEN NMR

erre ene a

0 1
  C     -418.614     385.387    -371.708
  O     -419.713     385.557    -372.580
  H     -418.953     385.558    -370.677
  H     -417.823     386.104    -371.941
  H     -418.225     384.369    -371.784
  P     -419.395     385.452    -374.152
  C     -418.085     387.127    -375.656
  O     -418.239     386.541    -374.378
  C     -417.596     388.570    -375.513
  O     -418.615     389.394    -374.904
  C     -416.366     388.723    -374.620
  O     -415.158     388.377    -375.277
  C     -416.436     390.209    -374.317
  O     -415.985     390.958    -375.459
  C     -417.954     390.395    -374.093
  N     -418.346     390.266    -372.684
  C     -417.876     391.236    -371.800
  O     -417.151     392.146    -372.200
  N     -418.204     391.140    -370.465
  C     -418.947     390.160    -370.050
  N     -419.226     390.107    -368.723
  C     -419.486     389.123    -370.951
  C     -419.155     389.234    -372.231
  O     -420.665     386.149    -374.839
  O     -419.098     384.082    -374.659
  H     -415.168     390.520    -375.777
  H     -420.512     386.246    -375.812
  H     -420.101     388.319    -370.561
  H     -419.506     388.502    -372.959
  H     -418.280     391.380    -374.443
  H     -415.810     390.503    -373.470
  H     -416.478     388.169    -373.683
  H     -417.412     388.970    -376.518
  H     -418.799     390.795    -368.115
  H     -419.053     387.113    -376.167
  H     -419.642     389.293    -368.285
  H     -417.362     386.560    -376.248
  P     -413.998     387.709    -374.395
  C     -411.868     388.764    -373.332
  O     -413.256     388.904    -373.616
  O     -412.908     387.278    -375.491
  O     -414.426     386.553    -373.548
  H     -412.512     386.414    -375.267
  H     -411.520     389.633    -372.814
  H     -411.326     388.654    -374.248
  H     -411.714     387.899    -372.721

 6  7  8  9  10  11  12  13  14  15  16  26  30  31  32  33  35 0
 6-311+G(2d,p)
 ****
 37  38 0
 6-311+G(2d,p)
 ****
 1  2  3  4  5  17  18  19  20  21  22  23  24  25 0
 3-21G
 ****
 27  28  29  34  36  39  40  41  42  43  44  45  46 0
 3-21G
 ****


