%nproc=1
%NoSave
%Mem=1900MB
#P OB98/GEN NMR

erre ene a

0 1
  C      400.417    1120.610     542.677
  O      399.158    1121.198     542.439
  H      400.433    1119.621     542.216
  H      400.574    1120.499     543.755
  H      401.225    1121.211     542.246
  P      399.005    1122.781     542.594
  C      396.538    1122.549     543.327
  O      397.455    1123.159     542.421
  C      395.094    1122.662     542.840
  O      394.746    1124.048     542.663
  C      394.885    1121.981     541.479
  O      394.577    1120.598     541.554
  C      393.704    1122.765     540.916
  O      392.451    1122.201     541.331
  C      393.884    1124.167     541.523
  N      393.022    1127.278     537.555
  C      392.187    1126.322     538.113
  N      390.993    1126.161     537.497
  N      392.509    1125.597     539.148
  C      393.771    1125.803     539.584
  C      394.701    1126.712     539.106
  C      394.302    1127.562     538.010
  O      395.003    1128.435     537.492
  N      395.889    1126.606     539.773
  C      395.722    1125.584     540.591
  N      394.418    1125.124     540.575
  O      399.652    1123.353     541.237
  O      399.683    1123.384     543.791
  H      392.417    1121.281     541.025
  H      400.060    1124.225     541.409
  H      392.709    1127.829     536.776
  H      396.476    1125.175     541.251
  H      392.930    1124.571     541.886
  H      393.711    1122.752     539.829
  H      390.725    1126.630     536.640
  H      395.747    1122.142     540.825
  H      390.425    1125.341     537.748
  H      394.420    1122.258     543.607
  H      396.652    1123.070     544.278
  H      396.805    1121.501     543.488
  P      395.471    1119.510     540.789
  C      393.218    1118.499     539.886
  O      394.537    1118.300     540.363
  O      396.374    1118.904     541.955
  O      396.298    1120.045     539.664
  H      397.253    1119.301     541.961
  H      392.774    1117.552     539.659
  H      393.246    1119.101     539.002
  H      392.638    1118.994     540.637

 6  7  8  9  10  11  12  13  14  15  26  29  33  34 0
 6-311+G(2d,p)
 ****
 36  38  39  40  41 0
 6-311+G(2d,p)
 ****
 1  2  3  4  5  16  17  18  19  20  21  22  23  24  25 0
 3-21G
 ****
 27  28  30  31  32  35  37  42  43  44  45  46  47 0
 3-21G
 ****
 48  49 0
 3-21G
 ****


