%nproc=1
%NoSave
%Mem=1900MB
#P OB98/GEN NMR

erre ene a

0 1
  C       13.541     866.016     124.678
  O       14.550     866.205     123.685
  P       16.118     866.038     124.011
  C       16.497     863.855     122.698
  O       16.494     864.484     123.976
  C       17.338     862.568     122.698
  O       18.733     862.872     122.896
  C       16.961     861.578     123.799
  O       15.800     860.855     123.443
  C       18.243     860.744     123.882
  O       18.267     859.750     122.846
  C       19.331     861.787     123.647
  N       22.576     860.783     127.473
  C       22.236     860.088     126.361
  N       21.357     860.426     125.393
  C       20.827     861.626     125.640
  C       21.064     862.450     126.735
  C       21.984     861.977     127.684
  N       22.311     862.686     128.820
  N       20.300     863.596     126.655
  C       19.625     863.471     125.524
  N       19.907     862.302     124.876
  O       16.563     866.757     125.246
  O       16.868     866.622     122.718
  H       18.181     860.214     121.990
  H       17.741     866.978     122.976
  H       22.748     859.129     126.234
  H       18.932     864.212     125.140
  H       20.146     861.404     123.041
  H       18.333     860.212     124.837
  H       16.806     862.099     124.742
  H       17.237     862.111     121.711
  H       16.920     864.557     121.973
  H       22.964     862.267     129.464
  H       21.845     863.552     129.010
  H       15.470     863.628     122.417
  P       14.430     861.084     124.240
  C       12.961     861.077     122.130
  O       13.424     861.833     123.234
  O       14.570     861.718     125.583
  O       13.799     859.620     124.337
  H       13.252     859.561     125.152
  H       13.732     861.066     121.351
  H       12.059     861.553     121.737
  H       12.726     860.047     122.429
  H       12.577     866.177     124.242
  H       13.692     866.712     125.477
  H       13.598     865.018     125.059

 3  4  5  6  7  8  9  10  11  12  22  25  29  30  31  32 0
 6-311+G(2d,p)
 ****
 33  36  37 0
 6-311+G(2d,p)
 ****
 1  2  13  14  15  16  17  18  19  20  21  23  24  26 0
 3-21G
 ****
 27  28  34  35  38  39  40  41  42  43  44  45  46  47  48 0
 3-21G
 ****


