%nproc=1
%NoSave
%Mem=1900MB
#P OB98/GEN NMR

erre ene a

0 1
  C      346.475    -221.574    -377.927
  O      346.847    -222.470    -376.901
  H      345.721    -222.055    -378.557
  H      347.345    -221.333    -378.542
  H      346.051    -220.659    -377.506
  P      347.794    -221.887    -375.742
  C      349.629    -220.082    -376.085
  O      349.124    -221.354    -376.466
  C      350.227    -219.367    -377.294
  O      349.193    -219.051    -378.254
  C      350.919    -218.050    -376.962
  O      352.246    -218.251    -376.497
  C      350.911    -217.380    -378.329
  O      351.942    -217.953    -379.156
  C      349.524    -217.774    -378.860
  N      346.889    -213.795    -380.577
  C      347.906    -214.512    -381.178
  N      348.283    -214.106    -382.408
  N      348.507    -215.534    -380.621
  C      348.036    -215.819    -379.386
  C      347.030    -215.186    -378.683
  C      346.373    -214.066    -379.315
  O      345.450    -213.411    -378.834
  N      346.825    -215.771    -377.462
  C      347.716    -216.742    -377.413
  N      348.478    -216.811    -378.552
  O      348.295    -223.201    -374.974
  O      347.142    -220.926    -374.806
  H      352.781    -217.532    -378.890
  H      348.371    -222.999    -374.021
  H      346.469    -213.009    -381.042
  H      347.845    -217.421    -376.580
  H      349.520    -217.915    -379.948
  H      351.099    -216.307    -378.272
  H      347.897    -213.297    -382.873
  H      350.328    -217.449    -376.258
  H      349.003    -214.635    -382.881
  H      350.926    -220.059    -377.781
  H      350.404    -220.216    -375.324
  H      348.812    -219.489    -375.662
  P      353.085    -216.951    -376.060
  C      353.640    -214.729    -377.284
  O      353.307    -216.107    -377.407
  O      354.541    -217.551    -375.759
  O      352.531    -216.205    -374.896
  H      355.024    -216.958    -375.153
  H      353.756    -214.302    -378.258
  H      354.556    -214.631    -376.740
  H      352.858    -214.218    -376.761

 6  7  8  9  10  11  12  13  14  15  26  29  33  34 0
 6-311+G(2d,p)
 ****
 36  38  39  40  41 0
 6-311+G(2d,p)
 ****
 1  2  3  4  5  16  17  18  19  20  21  22  23  24  25 0
 3-21G
 ****
 27  28  30  31  32  35  37  42  43  44  45  46  47 0
 3-21G
 ****
 48  49 0
 3-21G
 ****


