%nproc=1
%NoSave
%Mem=1900MB
#P OB98/GEN NMR

erre ene a

0 1
  C       29.877     198.204    -770.898
  O       29.433     198.621    -769.622
  H       29.339     197.293    -771.173
  H       30.948     197.991    -770.874
  H       29.666     198.978    -771.640
  P       30.187     199.889    -768.983
  C       28.246     201.555    -769.485
  O       29.568     201.140    -769.783
  C       28.111     203.067    -769.691
  O       28.953     203.782    -768.764
  C       28.535     203.548    -771.079
  O       27.565     203.304    -772.082
  C       28.694     205.031    -770.796
  O       27.391     205.644    -770.691
  C       29.407     204.993    -769.428
  N       30.867     204.998    -769.545
  C       31.462     206.191    -769.980
  O       30.772     207.170    -770.248
  N       32.824     206.239    -770.135
  C       33.538     205.194    -769.863
  N       34.883     205.288    -770.040
  C       32.961     203.919    -769.390
  C       31.639     203.893    -769.256
  O       31.668     199.785    -769.587
  O       30.130     200.007    -767.496
  H       26.910     205.152    -770.004
  H       32.179     200.604    -769.374
  H       33.599     203.064    -769.187
  H       31.139     202.989    -768.913
  H       29.106     205.844    -768.800
  H       29.231     205.563    -771.577
  H       29.509     203.138    -771.367
  H       27.072     203.338    -769.474
  H       35.244     206.159    -770.420
  H       28.034     201.302    -768.440
  H       35.510     204.494    -770.000
  H       27.533     201.036    -770.128
  P       28.075     203.256    -773.607
  C       29.128     200.872    -773.474
  O       29.343     202.267    -773.635
  O       28.729     204.696    -773.815
  O       27.009     202.961    -774.615
  H       28.600     205.009    -774.733
  H       30.066     200.359    -773.517
  H       28.491     200.517    -774.257
  H       28.665     200.690    -772.527

 6  7  8  9  10  11  12  13  14  15  16  26  30  31  32  33  35 0
 6-311+G(2d,p)
 ****
 37  38 0
 6-311+G(2d,p)
 ****
 1  2  3  4  5  17  18  19  20  21  22  23  24  25 0
 3-21G
 ****
 27  28  29  34  36  39  40  41  42  43  44  45  46 0
 3-21G
 ****


