%nproc=1
%NoSave
%Mem=1900MB
#P OB98/GEN NMR

erre ene a

0 1
  C       29.193      37.132       4.747
  O       30.574      37.251       4.472
  H       28.916      37.784       5.580
  H       28.629      37.437       3.861
  H       28.942      36.095       4.985
  P       31.585      36.841       5.648
  C       31.272      34.427       4.737
  O       31.368      35.267       5.879
  C       31.643      32.999       5.119
  O       33.068      32.894       5.334
  C       30.994      32.506       6.408
  O       29.662      32.067       6.204
  C       31.910      31.345       6.753
  O       31.596      30.213       5.921
  C       33.287      31.912       6.383
  N       36.671      31.240      10.161
  C       36.183      30.397       9.227
  N       35.281      30.652       8.259
  C       34.875      31.930       8.312
  C       35.277      32.903       9.212
  C       36.228      32.518      10.171
  N       36.717      33.372      11.136
  N       34.613      34.092       8.974
  C       33.851      33.845       7.928
  N       33.966      32.551       7.498
  O       30.929      37.494       6.954
  O       33.006      37.253       5.454
  H       30.660      29.995       6.089
  H       31.602      37.589       7.654
  H       36.569      29.382       9.264
  H       33.202      34.567       7.449
  H       33.963      31.148       5.984
  H       31.813      31.017       7.790
  H       31.053      33.259       7.203
  H       31.383      32.344       4.277
  H       31.962      34.787       3.968
  H       37.248      32.951      11.883
  H       36.281      34.276      11.241
  H       30.250      34.465       4.348
  P       28.838      31.591       7.496
  C       27.019      33.449       7.424
  O       28.158      32.913       8.092
  O       29.985      31.249       8.554
  O       27.919      30.437       7.259
  H       29.675      30.586       9.200
  H       26.683      34.325       7.939
  H       26.236      32.719       7.412
  H       27.283      33.705       6.419

 6  7  8  9  10  11  12  13  14  15  25  28  32  33  34  35 0
 6-311+G(2d,p)
 ****
 36  39  40 0
 6-311+G(2d,p)
 ****
 1  2  3  4  5  16  17  18  19  20  21  22  23  24 0
 3-21G
 ****
 26  27  29  30  31  37  38  41  42  43  44  45  46  47 0
 3-21G
 ****
 48 0
 3-21G
 ****


