%nproc=1
%NoSave
%Mem=1900MB
#P OB98/GEN NMR

erre ene a

0 1
  C      103.242      92.883      53.814
  O      102.896      94.250      53.691
  P      101.607      94.768      54.491
  C      102.691      97.053      55.125
  O      102.115      95.833      55.573
  C      103.904      97.400      55.989
  O      104.894      96.352      55.911
  C      104.619      98.671      55.555
  O      103.935      99.831      56.004
  C      105.988      98.489      56.194
  O      105.974      98.901      57.570
  C      106.191      96.964      56.083
  N      107.111      96.598      55.011
  C      108.447      96.934      55.215
  O      108.841      97.527      56.220
  N      109.308      96.605      54.205
  C      108.966      96.033      53.013
  O      109.776      95.811      52.122
  C      107.536      95.725      52.842
  C      106.688      96.024      53.830
  O      101.171      93.504      55.374
  O      100.493      95.249      53.625
  H      105.988      99.879      57.568
  H      100.198      93.471      55.445
  H      110.283      96.816      54.343
  H      107.229      95.272      51.909
  H      105.629      95.818      53.717
  H      106.587      96.568      57.026
  H      106.760      99.081      55.691
  H      104.733      98.683      54.463
  H      103.574      97.480      57.033
  H      101.948      97.851      55.195
  H      102.984      96.946      54.077
  P      103.626     100.963      54.907
  C      101.041     101.126      55.248
  O      102.116     100.693      54.444
  O      104.536     100.458      53.690
  O      103.937     102.340      55.389
  H      104.604      99.487      53.663
  H      101.268     102.073      55.744
  H      100.822     100.365      56.002
  H      100.160     101.261      54.616
  H      104.116      92.682      53.230
  H      102.432      92.277      53.464
  H      103.439      92.656      54.841

 3  4  5  6  7  8  9  10  11  12  13  23  28  29  30  31  32 0
 6-311+G(2d,p)
 ****
 33  34 0
 6-311+G(2d,p)
 ****
 1  2  14  15  16  17  18  19  20  21  22  24  25  26 0
 3-21G
 ****
 27  35  36  37  38  39  40  41  42  43  44  45 0
 3-21G
 ****


