%nproc=1
%NoSave
%Mem=1900MB
#P OB98/GEN NMR

erre ene a

0 1
  C     1076.792     689.143    1642.685
  O     1077.190     689.070    1641.318
  H     1077.240     688.303    1643.218
  H     1075.706     689.094    1642.753
  H     1077.151     690.076    1643.123
  P     1076.626     690.212    1640.342
  C     1074.097     689.664    1640.584
  O     1075.241     689.648    1639.741
  C     1072.892     689.074    1639.857
  O     1072.560     689.865    1638.687
  C     1073.085     687.638    1639.392
  O     1072.840     686.707    1640.445
  C     1072.047     687.547    1638.268
  O     1070.720     687.312    1638.796
  C     1072.131     688.951    1637.642
  N     1072.790     687.815    1632.748
  C     1071.675     687.637    1633.570
  N     1070.606     687.022    1633.022
  N     1071.650     688.031    1634.827
  C     1072.777     688.590    1635.249
  C     1073.931     688.847    1634.522
  C     1073.974     688.428    1633.119
  O     1074.875     688.620    1632.328
  N     1074.866     689.466    1635.299
  C     1074.318     689.570    1636.484
  N     1073.065     689.031    1636.504
  O     1077.623     690.165    1639.080
  O     1076.570     691.584    1640.933
  H     1070.076     687.396    1638.064
  H     1077.691     691.057    1638.693
  H     1072.735     687.508    1631.799
  H     1074.806     689.995    1637.358
  H     1071.168     689.304    1637.271
  H     1072.260     686.725    1637.584
  H     1070.696     686.427    1632.221
  H     1074.092     687.495    1638.958
  H     1069.809     686.864    1633.635
  H     1072.033     689.140    1640.546
  H     1073.863     690.701    1640.872
  H     1074.318     689.094    1641.499
  P     1073.934     685.548    1640.682
  C     1074.082     684.608    1638.245
  O     1073.632     684.407    1639.600
  O     1073.479     684.879    1642.074
  O     1075.340     686.038    1640.745
  H     1074.187     684.378    1642.451
  H     1073.806     683.764    1637.649
  H     1075.146     684.719    1638.235
  H     1073.628     685.491    1637.846

 6  7  8  9  10  11  12  13  14  15  26  29  33  34 0
 6-311+G(2d,p)
 ****
 36  38  39  40  41 0
 6-311+G(2d,p)
 ****
 1  2  3  4  5  16  17  18  19  20  21  22  23  24  25 0
 3-21G
 ****
 27  28  30  31  32  35  37  42  43  44  45  46  47 0
 3-21G
 ****
 48  49 0
 3-21G
 ****


