%nproc=1
%NoSave
%Mem=1900MB
#P OB98/GEN NMR

erre ene a

0 1
  C       56.826      -8.423     -64.527
  O       56.407      -7.925     -65.778
  H       56.660      -9.503     -64.508
  H       56.234      -7.962     -63.731
  H       57.888      -8.227     -64.354
  P       56.928      -6.487     -66.249
  C       55.485      -5.255     -64.501
  O       55.795      -5.411     -65.880
  C       54.084      -4.678     -64.293
  O       53.758      -4.653     -62.886
  C       53.973      -3.232     -64.779
  O       53.714      -3.075     -66.162
  C       52.808      -2.712     -63.942
  O       51.550      -3.023     -64.565
  C       52.962      -3.483     -62.629
  N       52.805      -1.939     -57.762
  C       51.905      -2.725     -58.453
  N       50.795      -3.097     -57.779
  N       52.075      -3.092     -59.696
  C       53.181      -2.565     -60.272
  C       54.139      -1.763     -59.692
  C       53.969      -1.407     -58.298
  O       54.733      -0.707     -57.640
  N       55.124      -1.427     -60.589
  C       54.724      -1.961     -61.725
  N       53.563      -2.684     -61.576
  O       56.831      -6.556     -67.848
  O       58.316      -6.133     -65.808
  H       51.461      -2.476     -65.365
  H       57.476      -5.945     -68.247
  H       52.637      -1.710     -56.798
  H       55.247      -1.878     -62.671
  H       51.992      -3.833     -62.253
  H       52.845      -1.624     -63.831
  H       50.566      -2.745     -56.862
  H       54.871      -2.668     -64.505
  H       50.000      -3.442     -58.320
  H       53.349      -5.328     -64.784
  H       56.233      -4.577     -64.085
  H       55.587      -6.210     -63.979
  P       54.535      -1.995     -67.012
  C       53.679       0.096     -65.722
  O       53.715      -0.620     -66.936
  O       54.313      -2.488     -68.518
  O       55.980      -1.890     -66.669
  H       55.071      -3.028     -68.811
  H       53.092       0.982     -65.848
  H       54.675       0.365     -65.437
  H       53.243      -0.515     -64.960

 6  7  8  9  10  11  12  13  14  15  26  29  33  34 0
 6-311+G(2d,p)
 ****
 36  38  39  40  41 0
 6-311+G(2d,p)
 ****
 1  2  3  4  5  16  17  18  19  20  21  22  23  24  25 0
 3-21G
 ****
 27  28  30  31  32  35  37  42  43  44  45  46  47 0
 3-21G
 ****
 48  49 0
 3-21G
 ****


