%nproc=1
%NoSave
%Mem=1900MB
#P OB98/GEN NMR

erre ene a

0 1
  C     -381.996     401.572      43.068
  O     -381.776     402.923      43.480
  P     -380.464     403.646      42.911
  C     -381.850     405.489      41.703
  O     -380.818     405.186      42.640
  C     -382.487     406.836      42.037
  O     -383.349     406.752      43.193
  C     -381.472     407.919      42.372
  O     -380.825     408.387      41.206
  C     -382.358     408.946      43.067
  O     -383.086     409.717      42.089
  C     -383.341     408.040      43.839
  N     -383.002     410.395      48.375
  C     -383.394     410.838      47.153
  N     -383.454     410.150      46.000
  C     -383.060     408.873      46.178
  C     -382.636     408.286      47.362
  C     -382.615     409.108      48.497
  N     -382.193     408.663      49.736
  N     -382.310     406.958      47.151
  C     -382.514     406.755      45.864
  N     -382.977     407.877      45.238
  O     -380.307     403.026      41.444
  O     -379.245     403.414      43.741
  H     -383.679     409.095      41.618
  H     -379.543     402.419      41.424
  H     -383.701     411.867      47.106
  H     -382.335     405.825      45.349
  H     -384.362     408.432      43.816
  H     -381.806     409.649      43.691
  H     -380.722     407.535      43.081
  H     -383.089     407.146      41.173
  H     -382.615     404.702      41.718
  H     -382.128     409.347      50.483
  H     -381.817     407.732      49.820
  H     -381.423     405.486      40.698
  P     -379.554     409.345      41.382
  C     -378.023     407.955      39.863
  O     -378.730     409.173      40.013
  O     -378.669     408.524      42.426
  O     -379.870     410.752      41.775
  H     -378.619     407.576      42.188
  H     -377.545     407.950      38.877
  H     -378.698     407.107      39.940
  H     -377.245     407.877      40.634
  H     -382.898     401.206      43.513
  H     -381.172     400.965      43.380
  H     -382.083     401.534      42.002

 3  4  5  6  7  8  9  10  11  12  22  25  29  30  31  32 0
 6-311+G(2d,p)
 ****
 33  36  37 0
 6-311+G(2d,p)
 ****
 1  2  13  14  15  16  17  18  19  20  21  23  24  26 0
 3-21G
 ****
 27  28  34  35  38  39  40  41  42  43  44  45  46  47  48 0
 3-21G
 ****


