%nproc=1
%NoSave
%Mem=1900MB
#P OB98/GEN NMR

erre ene a

0 1
  C        0.041    -299.788      59.766
  O        1.017    -298.811      60.049
  H       -0.244    -300.278      60.702
  H        0.460    -300.541      59.090
  H       -0.851    -299.345      59.316
  P        1.291    -297.660      58.971
  C        3.191    -298.962      57.805
  O        1.914    -298.354      57.661
  C        4.090    -298.700      56.594
  O        3.492    -299.251      55.398
  C        4.276    -297.206      56.322
  O        5.292    -296.573      57.079
  C        4.614    -297.200      54.834
  O        6.020    -297.416      54.627
  C        3.804    -298.384      54.296
  N        1.576    -296.918      49.937
  C        2.910    -297.172      50.185
  N        3.764    -296.953      49.164
  N        3.360    -297.585      51.342
  C        2.404    -297.669      52.300
  C        1.054    -297.426      52.173
  C        0.556    -297.023      50.874
  O       -0.616    -296.778      50.600
  N        0.391    -297.619      53.364
  C        1.353    -297.903      54.224
  N        2.588    -297.968      53.620
  O        2.550    -296.868      59.574
  O        0.141    -296.731      58.721
  H        6.183    -297.490      53.670
  H        2.548    -295.949      59.254
  H        1.282    -296.628      49.018
  H        1.205    -298.090      55.282
  H        4.387    -298.975      53.577
  H        4.372    -296.240      54.366
  H        3.481    -296.526      48.293
  H        3.326    -296.672      56.460
  H        4.761    -296.872      49.378
  H        5.052    -299.205      56.740
  H        3.018    -300.036      57.915
  H        3.676    -298.617      58.722
  P        5.174    -295.015      57.437
  C        7.183    -294.228      55.979
  O        5.791    -294.200      56.199
  O        6.267    -294.833      58.594
  O        3.819    -294.572      57.877
  H        5.839    -294.883      59.470
  H        7.420    -293.636      55.120
  H        7.498    -295.237      55.815
  H        7.687    -293.831      56.835

 6  7  8  9  10  11  12  13  14  15  26  29  33  34 0
 6-311+G(2d,p)
 ****
 36  38  39  40  41 0
 6-311+G(2d,p)
 ****
 1  2  3  4  5  16  17  18  19  20  21  22  23  24  25 0
 3-21G
 ****
 27  28  30  31  32  35  37  42  43  44  45  46  47 0
 3-21G
 ****
 48  49 0
 3-21G
 ****


