%nproc=1
%NoSave
%Mem=1900MB
#P OB98/GEN NMR

erre ene a

0 1
  C      264.392     282.156     706.866
  O      264.676     283.521     707.120
  H      263.592     281.838     707.537
  H      265.280     281.548     707.053
  H      264.060     282.024     705.833
  P      265.851     284.180     706.246
  C      267.747     283.106     707.644
  O      267.120     284.304     707.221
  C      269.258     283.206     707.461
  O      269.590     283.564     706.103
  C      269.939     284.229     708.368
  O      270.184     283.690     709.656
  C      271.221     284.509     707.589
  O      272.214     283.481     707.823
  C      270.733     284.466     706.136
  N      272.249     288.329     703.246
  C      272.870     287.125     703.528
  N      274.104     286.945     703.003
  N      272.335     286.184     704.265
  C      271.118     286.513     704.754
  C      270.389     287.666     704.534
  C      270.982     288.689     703.687
  O      270.460     289.745     703.349
  N      269.183     287.621     705.181
  C      269.194     286.471     705.817
  N      270.352     285.770     705.605
  O      265.373     285.704     706.064
  O      266.111     283.529     704.926
  H      273.012     283.689     707.305
  H      265.703     286.042     705.212
  H      272.708     289.004     702.660
  H      268.391     286.108     706.447
  H      271.486     284.058     705.454
  H      271.675     285.455     707.885
  H      274.684     287.730     702.731
  H      269.341     285.154     708.425
  H      274.572     286.076     703.225
  H      269.678     282.203     707.637
  H      267.369     282.272     707.050
  H      267.508     282.928     708.701
  P      269.420     284.362     710.900
  C      270.715     286.589     711.336
  O      270.526     285.218     711.699
  O      269.140     283.132     711.874
  O      268.171     285.084     710.545
  H      268.459     283.355     712.522
  H      271.477     287.019     711.952
  H      269.799     287.124     711.476
  H      271.010     286.649     710.309

 6  7  8  9  10  11  12  13  14  15  26  29  33  34 0
 6-311+G(2d,p)
 ****
 36  38  39  40  41 0
 6-311+G(2d,p)
 ****
 1  2  3  4  5  16  17  18  19  20  21  22  23  24  25 0
 3-21G
 ****
 27  28  30  31  32  35  37  42  43  44  45  46  47 0
 3-21G
 ****
 48  49 0
 3-21G
 ****


