%nproc=1
%NoSave
%Mem=1900MB
#P OB98/GEN NMR

erre ene a

0 1
  C      121.191     202.580    -225.855
  O      122.373     201.811    -225.962
  H      120.912     202.961    -226.840
  H      120.385     201.939    -225.486
  H      121.328     203.410    -225.158
  P      123.747     202.606    -226.194
  C      123.691     203.746    -223.861
  O      124.375     202.859    -224.736
  C      123.656     203.178    -222.444
  O      122.658     202.118    -222.395
  C      124.990     202.585    -221.967
  O      125.162     202.909    -220.583
  C      124.777     201.089    -222.102
  O      125.603     200.332    -221.224
  C      123.287     200.972    -221.796
  N      121.681     196.324    -220.505
  C      121.906     197.434    -219.773
  N      122.285     198.656    -220.207
  C      122.359     198.681    -221.548
  C      122.151     197.633    -222.427
  C      121.811     196.395    -221.851
  N      121.645     195.241    -222.582
  N      122.379     198.042    -223.728
  C      122.744     199.304    -223.630
  N      122.748     199.736    -222.333
  O      123.233     204.057    -226.638
  O      124.673     202.010    -227.198
  H      125.367     200.551    -220.301
  H      123.098     204.076    -227.602
  H      121.779     197.328    -218.699
  H      123.042     199.938    -224.454
  H      123.075     200.984    -220.719
  H      124.992     200.778    -223.130
  H      125.859     202.936    -222.538
  H      123.317     203.966    -221.762
  H      122.662     203.875    -224.217
  H      121.512     194.381    -222.072
  H      121.848     195.255    -223.570
  H      124.191     204.719    -223.869
  P      126.446     203.781    -220.182
  C      125.542     204.166    -217.771
  O      126.620     203.728    -218.589
  O      125.966     205.284    -220.451
  O      127.674     203.447    -220.964
  H      126.716     205.832    -220.743
  H      125.814     204.068    -216.741
  H      124.677     203.568    -217.970
  H      125.324     205.191    -217.987

 6  7  8  9  10  11  12  13  14  15  25  28  32  33  34  35 0
 6-311+G(2d,p)
 ****
 36  39  40 0
 6-311+G(2d,p)
 ****
 1  2  3  4  5  16  17  18  19  20  21  22  23  24 0
 3-21G
 ****
 26  27  29  30  31  37  38  41  42  43  44  45  46  47 0
 3-21G
 ****
 48 0
 3-21G
 ****


