%nproc=1
%NoSave
%Mem=1900MB
#P OB98/GEN NMR

erre ene a

0 1
  C      186.827      81.256     -11.650
  O      187.695      80.198     -11.280
  H      187.252      81.771     -12.515
  H      186.720      81.976     -10.834
  H      185.844      80.861     -11.924
  P      187.366      79.384      -9.939
  C      189.276      79.820      -8.245
  O      188.011      80.241      -8.747
  C      190.400      80.487      -9.031
  O      190.149      81.901      -9.161
  C      191.758      80.367      -8.354
  O      192.293      79.067      -8.518
  C      192.522      81.479      -9.045
  O      192.983      81.072     -10.338
  C      191.433      82.571      -9.164
  N      191.509      83.568      -8.100
  C      192.109      84.786      -8.440
  O      192.530      84.978      -9.581
  N      192.230      85.746      -7.468
  C      191.784      85.525      -6.270
  N      191.940      86.518      -5.356
  C      191.135      84.256      -5.876
  C      191.033      83.333      -6.829
  O      187.733      77.931      -9.924
  O      185.792      79.607      -9.737
  H      193.525      81.817     -10.673
  H      185.287      78.908     -10.193
  H      190.773      84.118      -4.866
  H      190.568      82.376      -6.621
  H      191.514      83.092     -10.128
  H      193.391      81.792      -8.465
  H      191.674      80.620      -7.291
  H      190.422      80.054     -10.040
  H      192.404      87.365      -5.668
  H      189.324      78.732      -8.363
  H      191.556      86.491      -4.422
  H      189.364      80.059      -7.178
  P      193.384      78.496      -7.491
  C      195.667      78.063      -8.609
  O      194.799      79.036      -8.032
  O      193.313      77.028      -7.234
  O      193.146      79.386      -6.180
  H      192.321      79.115      -5.701
  H      196.571      78.537      -8.930
  H      195.185      77.608      -9.449
  H      195.897      77.313      -7.881

 6  7  8  9  10  11  12  13  14  15  16  26  30  31  32  33  35 0
 6-311+G(2d,p)
 ****
 37  38 0
 6-311+G(2d,p)
 ****
 1  2  3  4  5  17  18  19  20  21  22  23  24  25 0
 3-21G
 ****
 27  28  29  34  36  39  40  41  42  43  44  45  46 0
 3-21G
 ****


