%nproc=1
%NoSave
%Mem=1900MB
#P OB98/GEN NMR

erre ene a

0 1
  C      107.144     -84.507     -13.469
  O      108.015     -84.929     -12.437
  H      106.471     -83.743     -13.070
  H      106.547     -85.351     -13.828
  H      107.720     -84.075     -14.295
  P      109.048     -86.101     -12.812
  C      107.452     -88.093     -12.332
  O      108.157     -87.341     -13.312
  C      107.291     -89.541     -12.781
  O      106.637     -89.610     -14.067
  C      108.603     -90.309     -12.911
  O      109.022     -90.817     -11.655
  C      108.208     -91.409     -13.889
  O      107.500     -92.471     -13.212
  C      107.271     -90.660     -14.852
  N      110.080     -91.691     -18.919
  C      109.658     -92.515     -17.896
  N      110.069     -93.805     -17.946
  N      108.908     -92.116     -16.900
  C      108.625     -90.791     -16.948
  C      108.986     -89.871     -17.906
  C      109.766     -90.341     -19.029
  O      110.102     -89.679     -20.012
  N      108.484     -88.625     -17.612
  C      107.857     -88.789     -16.465
  N      107.917     -90.085     -16.017
  O      109.591     -86.590     -11.385
  O      110.171     -85.701     -13.708
  H      106.986     -92.975     -13.867
  H      110.540     -86.807     -11.468
  H      110.626     -92.060     -19.675
  H      107.335     -88.008     -15.920
  H      106.470     -91.308     -15.224
  H      109.080     -91.868     -14.355
  H      110.860     -94.092     -18.499
  H      109.384     -89.682     -13.367
  H      109.820     -94.387     -17.155
  H      106.627     -90.037     -12.062
  H      106.463     -87.643     -12.188
  H      108.006     -88.055     -11.387
  P      110.545     -90.580     -11.208
  C      111.264     -92.933     -12.047
  O      111.478     -91.529     -12.108
  O      110.601     -91.260      -9.763
  O      110.961     -89.144     -11.144
  H      110.618     -90.571      -9.071
  H      111.956     -93.428     -12.696
  H      110.264     -93.155     -12.356
  H      111.411     -93.273     -11.043

 6  7  8  9  10  11  12  13  14  15  26  29  33  34 0
 6-311+G(2d,p)
 ****
 36  38  39  40  41 0
 6-311+G(2d,p)
 ****
 1  2  3  4  5  16  17  18  19  20  21  22  23  24  25 0
 3-21G
 ****
 27  28  30  31  32  35  37  42  43  44  45  46  47 0
 3-21G
 ****
 48  49 0
 3-21G
 ****


