%nproc=1
%NoSave
%Mem=1900MB
#P OB98/GEN NMR

erre ene a

0 1
  C     -217.282     139.936     591.043
  O     -218.018     140.849     590.253
  H     -216.498     139.488     590.431
  H     -217.940     139.142     591.412
  H     -216.820     140.453     591.892
  P     -219.168     141.687     590.990
  C     -220.998     141.735     589.150
  O     -219.982     142.458     589.839
  C     -221.279     142.370     587.787
  O     -221.794     143.714     587.986
  C     -220.038     142.488     586.878
  O     -220.464     142.290     585.524
  C     -219.641     143.942     587.039
  O     -218.848     144.421     585.954
  C     -221.019     144.593     587.147
  N     -220.056     149.398     585.993
  C     -220.098     148.270     585.190
  N     -219.844     148.452     583.876
  N     -220.372     147.077     585.641
  C     -220.642     147.053     586.962
  C     -220.629     148.085     587.867
  C     -220.296     149.401     587.363
  O     -220.226     150.434     588.027
  N     -220.923     147.642     589.139
  C     -221.114     146.339     588.991
  N     -220.954     145.936     587.697
  O     -218.343     142.857     591.715
  O     -220.007     140.917     591.959
  H     -218.167     143.733     585.746
  H     -218.125     142.598     592.629
  H     -219.829     150.287     585.590
  H     -221.362     145.660     589.799
  H     -221.521     144.674     586.180
  H     -219.065     144.081     587.966
  H     -219.674     149.356     583.446
  H     -219.235     141.789     587.120
  H     -219.916     147.649     583.259
  H     -222.070     141.789     587.292
  H     -221.915     141.756     589.752
  H     -220.677     140.695     589.024
  P     -220.181     140.860     584.846
  C     -219.869     142.222     582.637
  O     -220.346     141.027     583.248
  O     -221.483     140.008     585.244
  O     -218.925     140.202     585.302
  H     -221.254     139.065     585.285
  H     -220.050     142.181     581.583
  H     -218.818     142.319     582.815
  H     -220.380     143.064     583.054

 6  7  8  9  10  11  12  13  14  15  26  29  33  34 0
 6-311+G(2d,p)
 ****
 36  38  39  40  41 0
 6-311+G(2d,p)
 ****
 1  2  3  4  5  16  17  18  19  20  21  22  23  24  25 0
 3-21G
 ****
 27  28  30  31  32  35  37  42  43  44  45  46  47 0
 3-21G
 ****
 48  49 0
 3-21G
 ****


