%nproc=1
%NoSave
%Mem=1900MB
#P OB98/GEN NMR

erre ene a

0 1
  C       50.402     -17.184    -118.425
  O       49.069     -17.143    -117.966
  H       50.826     -16.179    -118.355
  H       50.421     -17.501    -119.472
  H       51.012     -17.865    -117.825
  P       48.358     -18.513    -117.544
  C       47.470     -18.901    -119.937
  O       48.236     -19.427    -118.860
  C       46.706     -19.996    -120.683
  O       47.631     -20.928    -121.286
  C       45.820     -20.823    -119.751
  O       44.546     -20.270    -119.478
  C       45.694     -22.133    -120.524
  O       44.626     -22.062    -121.483
  C       47.047     -22.240    -121.232
  N       48.197     -27.097    -120.142
  C       47.092     -26.592    -120.799
  N       46.147     -27.490    -121.158
  N       46.926     -25.323    -121.059
  C       47.904     -24.533    -120.556
  C       49.039     -24.917    -119.876
  C       49.240     -26.333    -119.642
  O       50.198     -26.831    -119.059
  N       49.807     -23.832    -119.524
  C       49.100     -22.794    -119.923
  N       47.950     -23.169    -120.577
  O       46.835     -18.082    -117.282
  O       48.939     -19.194    -116.342
  H       43.785     -21.977    -121.001
  H       46.420     -18.695    -116.649
  H       48.285     -28.088    -119.994
  H       49.386     -21.757    -119.786
  H       46.931     -22.581    -122.269
  H       45.466     -22.974    -119.861
  H       46.177     -28.459    -120.878
  H       46.342     -21.029    -118.810
  H       45.218     -27.137    -121.396
  H       46.127     -19.542    -121.496
  H       48.174     -18.411    -120.613
  H       46.782     -18.134    -119.573
  P       44.007     -20.205    -117.971
  C       42.075     -21.880    -118.459
  O       43.222     -21.575    -117.695
  O       42.844     -19.108    -118.058
  O       45.033     -19.846    -116.952
  H       43.183     -18.237    -117.785
  H       41.679     -22.823    -118.146
  H       42.339     -21.930    -119.495
  H       41.338     -21.118    -118.315

 6  7  8  9  10  11  12  13  14  15  26  29  33  34 0
 6-311+G(2d,p)
 ****
 36  38  39  40  41 0
 6-311+G(2d,p)
 ****
 1  2  3  4  5  16  17  18  19  20  21  22  23  24  25 0
 3-21G
 ****
 27  28  30  31  32  35  37  42  43  44  45  46  47 0
 3-21G
 ****
 48  49 0
 3-21G
 ****


