%nproc=1
%NoSave
%Mem=1900MB
#P OB98/GEN NMR

erre ene a

0 1
  C       78.648    -202.544    -219.804
  O       77.934    -203.303    -220.785
  P       76.348    -203.462    -220.585
  C       76.694    -205.925    -219.783
  O       76.048    -205.036    -220.677
  C       77.238    -207.149    -220.527
  O       76.128    -207.987    -220.973
  C       78.093    -206.817    -221.756
  O       79.146    -207.789    -221.806
  C       77.129    -207.024    -222.910
  O       77.808    -207.256    -224.136
  C       76.313    -208.210    -222.386
  N       75.036    -208.365    -223.078
  C       74.985    -209.295    -224.107
  O       75.974    -209.915    -224.497
  N       73.767    -209.458    -224.709
  C       72.638    -208.738    -224.438
  O       71.572    -208.923    -225.009
  C       72.782    -207.689    -223.417
  C       73.956    -207.553    -222.795
  O       75.796    -202.870    -221.962
  O       75.845    -202.783    -219.355
  H       76.354    -203.086    -222.729
  H       78.459    -206.539    -224.281
  H       73.700    -210.151    -225.438
  H       71.925    -207.059    -223.217
  H       74.101    -206.778    -222.055
  H       76.880    -209.142    -222.497
  H       76.493    -206.140    -223.028
  H       78.520    -205.810    -221.718
  H       77.825    -207.743    -219.817
  H       75.986    -206.262    -219.018
  H       77.496    -205.391    -219.260
  P       80.396    -207.611    -220.807
  C       82.019    -206.937    -222.746
  O       81.726    -207.807    -221.678
  O       80.297    -208.985    -219.986
  O       80.336    -206.407    -219.927
  H       80.178    -209.763    -220.559
  H       83.059    -207.089    -223.048
  H       81.894    -205.892    -222.453
  H       81.371    -207.163    -223.598
  H       79.687    -202.519    -220.059
  H       78.527    -202.999    -218.843
  H       78.264    -201.546    -219.776

 3  4  5  6  7  8  9  10  11  12  13  24  28  29  30  31  32 0
 6-311+G(2d,p)
 ****
 33  34 0
 6-311+G(2d,p)
 ****
 1  2  14  15  16  17  18  19  20  21  22  23  25  26  27 0
 3-21G
 ****
 35  36  37  38  39  40  41  42  43  44  45 0
 3-21G
 ****


