%nproc=1
%NoSave
%Mem=1900MB
#P OB98/GEN NMR

erre ene a

0 1
  C     -109.757    -401.158    -897.060
  O     -108.624    -401.531    -897.830
  P     -108.622    -402.999    -898.460
  C     -108.208    -405.397    -897.520
  O     -108.387    -404.007    -897.230
  C     -107.354    -406.064    -896.440
  O     -107.975    -405.932    -895.160
  C     -107.157    -407.565    -896.640
  O     -106.185    -407.810    -897.650
  C     -106.732    -407.988    -895.250
  O     -105.302    -407.835    -895.080
  C     -107.500    -407.014    -894.330
  N     -108.592    -407.664    -893.620
  C     -108.305    -408.050    -892.310
  O     -107.174    -407.872    -891.840
  N     -109.300    -408.686    -891.580
  C     -110.459    -408.888    -892.120
  N     -111.387    -409.526    -891.360
  C     -110.779    -408.521    -893.510
  C     -109.817    -407.903    -894.210
  O     -107.226    -403.056    -899.250
  O     -109.787    -403.318    -899.350
  H     -105.133    -406.870    -895.200
  H     -107.270    -403.686    -900.000
  H     -111.775    -408.715    -893.910
  H     -109.959    -407.591    -895.230
  H     -106.827    -406.569    -893.600
  H     -106.969    -409.042    -895.060
  H     -108.109    -408.037    -896.920
  H     -106.373    -405.551    -896.410
  H     -111.123    -409.778    -890.420
  H     -107.722    -405.508    -898.490
  H     -112.334    -409.710    -891.670
  H     -109.204    -405.882    -897.570
  P     -105.989    -409.323    -898.130
  C     -105.467    -411.505    -896.860
  O     -105.388    -410.081    -896.850
  O     -104.730    -409.195    -899.100
  O     -107.147    -409.979    -898.810
  H     -104.542    -410.061    -899.540
  H     -104.868    -411.890    -896.050
  H     -105.054    -411.886    -897.820
  H     -106.499    -411.813    -896.760
  H     -109.630    -400.158    -896.700
  H     -109.860    -401.826    -896.230
  H     -110.635    -401.209    -897.670

 3  4  5  6  7  8  9  10  11  12  13  21  23  27  28  29  30  32 0
 6-311+G(2d,p)
 ****
 34  35 0
 6-311+G(2d,p)
 ****
 1  2  14  15  16  17  18  19  20  22  24  25  26 0
 3-21G
 ****
 31  33  36  37  38  39  40  41  42  43  44  45  46 0
 3-21G
 ****


