%nproc=1
%NoSave
%Mem=1900MB
#P OB98/GEN NMR

erre ene a

0 1
  C      209.501    -382.772    -174.346
  O      209.884    -382.555    -175.703
  P      209.968    -383.814    -176.692
  C      212.452    -384.450    -176.943
  O      211.228    -384.710    -176.262
  C      213.507    -385.496    -176.579
  O      214.094    -385.235    -175.288
  C      212.945    -386.906    -176.486
  O      212.689    -387.437    -177.775
  C      214.042    -387.611    -175.699
  O      215.118    -388.010    -176.562
  C      214.518    -386.499    -174.737
  N      214.039    -386.673    -173.375
  C      214.959    -387.198    -172.462
  O      216.088    -387.522    -172.836
  N      214.571    -387.361    -171.157
  C      213.371    -387.031    -170.793
  N      213.042    -387.207    -169.486
  C      212.363    -386.483    -171.728
  C      212.760    -386.342    -172.989
  O      209.874    -383.497    -178.148
  O      208.724    -384.716    -176.220
  H      215.551    -387.182    -176.852
  H      208.390    -385.219    -176.989
  H      211.377    -386.221    -171.377
  H      212.086    -385.952    -173.745
  H      215.613    -386.468    -174.707
  H      213.668    -388.516    -175.206
  H      212.020    -386.897    -175.900
  H      214.298    -385.461    -177.340
  H      213.743    -387.593    -168.870
  H      212.810    -383.450    -176.680
  H      212.148    -386.937    -169.099
  H      212.259    -384.443    -178.023
  P      211.161    -387.542    -178.244
  C      210.593    -390.070    -178.371
  O      210.548    -388.877    -177.612
  O      211.288    -387.898    -179.803
  O      210.352    -386.302    -178.036
  H      210.553    -387.486    -180.292
  H      210.435    -390.919    -177.702
  H      211.559    -390.188    -178.867
  H      209.796    -390.059    -179.118
  H      209.494    -381.838    -173.824
  H      210.199    -383.436    -173.880
  H      208.523    -383.205    -174.316

 3  4  5  6  7  8  9  10  11  12  13  23  27  28  29  30  32 0
 6-311+G(2d,p)
 ****
 34  35 0
 6-311+G(2d,p)
 ****
 1  2  14  15  16  17  18  19  20  21  22  24  25  26 0
 3-21G
 ****
 31  33  36  37  38  39  40  41  42  43  44  45  46 0
 3-21G
 ****


