%nproc=1
%NoSave
%Mem=1900MB
#P OB98/GEN NMR

erre ene a

0 1
  C     -259.909     407.566    -126.922
  O     -260.406     407.472    -125.601
  H     -259.058     408.250    -126.958
  H     -259.576     406.573    -127.246
  H     -260.695     407.911    -127.600
  P     -260.957     408.823    -124.937
  C     -263.445     408.193    -125.355
  O     -262.379     409.100    -125.628
  C     -263.926     407.568    -126.661
  O     -262.882     406.749    -127.235
  C     -265.131     406.650    -126.508
  O     -266.352     407.370    -126.444
  C     -265.033     405.840    -127.789
  O     -265.515     406.626    -128.897
  C     -263.517     405.627    -127.909
  N     -262.664     400.645    -128.704
  C     -263.148     401.615    -129.506
  N     -263.351     402.917    -129.216
  C     -262.994     403.185    -127.951
  C     -262.494     402.296    -127.011
  C     -262.321     400.964    -127.434
  N     -261.842     399.967    -126.611
  N     -262.278     402.931    -125.805
  C     -262.612     404.186    -126.021
  N     -263.061     404.384    -127.299
  O     -260.023     409.963    -125.570
  O     -260.967     408.855    -123.446
  H     -265.016     407.467    -128.879
  H     -260.044     410.762    -125.009
  H     -263.412     401.304    -130.516
  H     -262.546     404.982    -125.292
  H     -263.174     405.627    -128.948
  H     -265.622     404.922    -127.765
  H     -265.019     405.974    -125.648
  H     -264.142     408.379    -127.369
  H     -264.269     408.739    -124.889
  H     -261.933     399.023    -126.952
  H     -261.730     400.168    -125.630
  H     -263.087     407.420    -124.667
  P     -267.246     407.194    -125.124
  C     -267.200     409.609    -124.155
  O     -266.700     408.276    -124.075
  O     -266.737     405.802    -124.524
  O     -268.722     407.206    -125.363
  H     -267.436     405.376    -123.987
  H     -266.744     410.207    -123.394
  H     -268.261     409.601    -124.014
  H     -266.971     410.019    -125.116

 6  7  8  9  10  11  12  13  14  15  25  28  32  33  34  35 0
 6-311+G(2d,p)
 ****
 36  39  40 0
 6-311+G(2d,p)
 ****
 1  2  3  4  5  16  17  18  19  20  21  22  23  24 0
 3-21G
 ****
 26  27  29  30  31  37  38  41  42  43  44  45  46  47 0
 3-21G
 ****
 48 0
 3-21G
 ****


