%nproc=1
%NoSave
%Mem=1900MB
#P OB98/GEN NMR

erre ene a

0 1
  C     -344.688    -164.413     514.671
  O     -345.369    -165.337     515.495
  P     -345.677    -164.994     517.030
  C     -343.453    -166.162     517.640
  O     -344.245    -164.972     517.758
  C     -342.219    -166.083     518.536
  O     -341.345    -165.010     518.103
  C     -342.519    -165.798     519.997
  O     -342.995    -166.960     520.646
  C     -341.168    -165.296     520.494
  O     -340.298    -166.393     520.806
  C     -340.643    -164.522     519.256
  N     -340.789    -163.078     519.409
  C     -339.616    -162.356     519.635
  O     -338.534    -162.941     519.719
  N     -339.689    -160.988     519.799
  C     -340.848    -160.403     519.763
  N     -340.865    -159.049     519.941
  C     -342.118    -161.125     519.565
  C     -342.020    -162.451     519.402
  O     -346.719    -165.842     517.681
  O     -346.079    -163.433     516.979
  H     -339.465    -165.993     521.140
  H     -346.976    -163.297     516.598
  H     -343.063    -160.596     519.562
  H     -342.897    -163.065     519.256
  H     -339.582    -164.741     519.092
  H     -341.251    -164.676     521.394
  H     -343.259    -164.981     520.073
  H     -341.669    -167.033     518.443
  H     -339.980    -158.602     520.108
  H     -343.148    -166.261     516.594
  H     -341.708    -158.500     519.974
  H     -344.075    -167.027     517.908
  P     -344.055    -166.839     521.840
  C     -342.344    -166.571     523.738
  O     -343.396    -165.951     523.005
  O     -344.669    -168.122     522.291
  O     -345.180    -165.854     521.247
  H     -346.070    -166.207     521.466
  H     -341.767    -165.800     524.246
  H     -341.674    -167.139     523.062
  H     -342.758    -167.249     524.483
  H     -344.580    -164.823     513.689
  H     -343.721    -164.213     515.083
  H     -345.248    -163.503     514.618

 3  4  5  6  7  8  9  10  11  12  13  23  27  28  29  30  32 0
 6-311+G(2d,p)
 ****
 34  35 0
 6-311+G(2d,p)
 ****
 1  2  14  15  16  17  18  19  20  21  22  24  25  26 0
 3-21G
 ****
 31  33  36  37  38  39  40  41  42  43  44  45  46 0
 3-21G
 ****


