%nproc=1
%NoSave
%Mem=1900MB
#P OB98/GEN NMR

erre ene a

0 1
  C     1648.535    -899.030     594.491
  O     1647.359    -898.220     594.475
  P     1646.565    -897.900     595.798
  C     1645.779    -895.660     594.670
  O     1645.460    -896.770     595.488
  C     1644.491    -895.200     593.990
  O     1643.498    -894.780     594.998
  C     1644.738    -893.960     593.123
  O     1644.960    -894.360     591.744
  C     1643.457    -893.130     593.300
  O     1642.424    -893.630     592.456
  C     1643.166    -893.400     594.797
  N     1643.862    -892.590     595.795
  C     1643.676    -891.200     595.808
  O     1642.924    -890.590     595.068
  N     1644.416    -890.540     596.755
  C     1645.264    -891.090     597.681
  O     1646.093    -890.470     598.341
  C     1645.196    -892.540     597.775
  C     1644.535    -893.230     596.842
  O     1647.626    -897.110     596.717
  O     1645.988    -899.100     596.515
  H     1641.704    -893.010     592.476
  H     1648.036    -897.720     597.355
  H     1644.396    -889.500     596.689
  H     1645.745    -893.040     598.579
  H     1644.506    -894.300     596.865
  H     1642.060    -893.280     594.979
  H     1643.622    -892.090     592.988
  H     1645.601    -893.390     593.477
  H     1644.066    -895.980     593.408
  H     1646.513    -895.920     593.934
  H     1646.199    -894.850     595.278
  P     1645.867    -893.490     590.813
  C     1646.262    -895.770     589.686
  O     1646.093    -894.370     589.497
  O     1647.121    -892.940     591.431
  O     1644.898    -892.310     590.321
  H     1645.006    -891.520     590.858
  H     1646.222    -896.280     588.765
  H     1645.456    -896.170     590.368
  H     1647.228    -895.960     590.147
  H     1648.917    -899.123     593.496
  H     1648.295    -900.000     594.873
  H     1649.274    -898.573     595.116

 3  4  5  6  7  8  9  10  11  12  13  23  28  29  30  31  32 0
 6-311+G(2d,p)
 ****
 33  34 0
 6-311+G(2d,p)
 ****
 1  2  14  15  16  17  18  19  20  21  22  24  25  26  27 0
 3-21G
 ****
 35  36  37  38  39  40  41  42  43  44  45 0
 3-21G
 ****


