%nproc=1
%NoSave
%Mem=1900MB
#P OB98/GEN NMR

erre ene a

0 1
  C       17.724    -264.600       9.209
  O       17.038    -264.762       7.984
  H       18.473    -263.814       9.090
  H       18.231    -265.525       9.495
  H       17.025    -264.299       9.994
  P       15.990    -265.965       7.837
  C       14.081    -264.377       7.159
  O       14.887    -265.482       6.775
  C       13.529    -263.656       5.927
  O       14.597    -262.865       5.338
  C       12.989    -264.606       4.850
  O       11.835    -264.006       4.260
  C       14.129    -264.660       3.856
  O       13.678    -265.030       2.567
  C       14.723    -263.251       3.959
  N       16.114    -263.231       3.509
  C       16.382    -262.510       2.338
  O       15.474    -261.924       1.748
  N       17.653    -262.526       1.827
  C       18.569    -263.244       2.399
  N       19.800    -263.244       1.819
  C       18.326    -264.039       3.622
  C       17.093    -263.987       4.115
  O       15.434    -266.514       9.109
  O       16.808    -267.080       7.028
  H       14.392    -264.874       1.914
  H       17.263    -267.678       7.650
  H       19.122    -264.625       4.054
  H       16.817    -264.549       5.003
  H       14.146    -262.543       3.352
  H       14.868    -265.406       4.181
  H       12.736    -265.597       5.241
  H       12.755    -262.951       6.255
  H       19.915    -262.704       0.970
  H       14.708    -263.686       7.736
  H       20.577    -263.794       2.147
  H       13.257    -264.721       7.793
  P       10.475    -264.841       4.085
  C        9.098    -262.799       4.784
  O        9.264    -263.819       3.807
  O       10.210    -265.835       5.169
  O       10.659    -265.583       2.674
  H       10.170    -266.429       2.691
  H        8.273    -262.175       4.511
  H        9.989    -262.209       4.838
  H        8.907    -263.246       5.737

 6  7  8  9  10  11  12  13  14  15  16  26  30  31  32  33  35 0
 6-311+G(2d,p)
 ****
 37  38 0
 6-311+G(2d,p)
 ****
 1  2  3  4  5  17  18  19  20  21  22  23  24  25 0
 3-21G
 ****
 27  28  29  34  36  39  40  41  42  43  44  45  46 0
 3-21G
 ****


