%nproc=1
%NoSave
%Mem=1900MB
#P OB98/GEN NMR

erre ene a

0 1
  C      -13.617      62.384      26.838
  O      -14.773      62.660      26.069
  P      -15.493      64.079      26.252
  C      -17.187      64.088      24.279
  O      -16.985      63.946      25.678
  C      -18.342      63.198      23.815
  O      -17.991      61.799      24.036
  C      -19.667      63.459      24.548
  O      -20.729      63.232      23.611
  C      -19.677      62.370      25.604
  O      -20.970      62.108      26.124
  C      -19.062      61.214      24.805
  N      -18.584      60.126      25.656
  C      -19.492      59.571      26.551
  O      -20.660      59.941      26.668
  N      -18.996      58.596      27.375
  C      -17.695      58.195      27.454
  O      -17.291      57.401      28.295
  C      -16.780      58.818      26.484
  C      -17.258      59.739      25.644
  O      -14.753      65.008      25.180
  O      -15.414      64.644      27.631
  H      -20.870      61.469      26.854
  H      -14.079      65.561      25.617
  H      -19.644      58.174      28.025
  H      -15.744      58.509      26.504
  H      -16.601      60.228      24.931
  H      -19.794      60.821      24.089
  H      -19.031      62.666      26.438
  H      -19.742      64.464      24.973
  H      -18.471      63.332      22.734
  H      -16.277      63.798      23.754
  H      -17.390      65.140      24.043
  P      -21.818      64.396      23.413
  C      -22.571      62.912      21.398
  O      -22.930      63.822      22.415
  O      -20.989      65.431      22.515
  O      -22.313      64.981      24.697
  H      -20.483      64.992      21.810
  H      -21.760      62.250      21.719
  H      -22.252      63.465      20.512
  H      -23.443      62.304      21.142
  H      -13.258      61.404      26.603
  H      -13.861      62.434      27.879
  H      -12.859      63.105      26.614

 3  4  5  6  7  8  9  10  11  12  13  23  28  29  30  31  32 0
 6-311+G(2d,p)
 ****
 33  34 0
 6-311+G(2d,p)
 ****
 1  2  14  15  16  17  18  19  20  21  22  24  25  26 0
 3-21G
 ****
 27  35  36  37  38  39  40  41  42  43  44  45 0
 3-21G
 ****


