%nproc=1
%NoSave
%Mem=1900MB
#P OB98/GEN NMR

erre ene a

0 1
  C      -19.209     -17.718     101.657
  O      -19.356     -18.910     102.406
  H      -19.087     -17.978     100.602
  H      -18.325     -17.161     101.980
  H      -20.098     -17.092     101.765
  P      -19.395     -18.801     104.004
  C      -18.414     -21.189     103.846
  O      -19.288     -20.305     104.541
  C      -18.567     -22.608     104.386
  O      -18.115     -22.672     105.753
  C      -20.010     -23.091     104.401
  O      -20.438     -23.444     103.101
  C      -19.917     -24.234     105.393
  O      -19.389     -25.416     104.778
  C      -18.925     -23.662     106.432
  N      -19.594     -23.085     107.593
  C      -18.825     -22.985     108.757
  O      -17.656     -23.364     108.767
  N      -19.416     -22.475     109.887
  C      -20.651     -22.086     109.855
  N      -21.174     -21.592     111.009
  C      -21.491     -22.162     108.645
  C      -20.906     -22.670     107.563
  O      -20.521     -18.012     104.600
  O      -17.966     -18.181     104.374
  H      -18.489     -25.182     104.479
  H      -18.010     -17.207     104.383
  H      -22.515     -21.820     108.663
  H      -21.452     -22.759     106.629
  H      -18.241     -24.444     106.783
  H      -20.892     -24.483     105.808
  H      -20.661     -22.323     104.829
  H      -17.932     -23.275     103.789
  H      -20.564     -21.568     111.818
  H      -17.393     -20.830     104.009
  H      -22.091     -21.180     111.080
  H      -18.621     -21.170     102.770
  P      -21.714     -22.732     102.442
  C      -22.762     -24.967     101.694
  O      -22.200     -23.725     101.277
  O      -21.511     -21.313     102.031
  O      -22.847     -22.914     103.560
  H      -22.701     -22.304     104.323
  H      -23.046     -25.537     100.834
  H      -23.624     -24.783     102.300
  H      -22.038     -25.514     102.261

 6  7  8  9  10  11  12  13  14  15  16  26  30  31  32  33  35 0
 6-311+G(2d,p)
 ****
 37  38 0
 6-311+G(2d,p)
 ****
 1  2  3  4  5  17  18  19  20  21  22  23  24  25 0
 3-21G
 ****
 27  28  29  34  36  39  40  41  42  43  44  45  46 0
 3-21G
 ****


