%nproc=1
%NoSave
%Mem=1900MB
#P OB98/GEN NMR

erre ene a

0 1
  C     -208.185     498.361     292.244
  O     -209.210     498.495     293.203
  H     -208.461     498.937     291.358
  H     -208.075     497.310     291.964
  H     -207.236     498.746     292.627
  P     -208.930     498.030     294.709
  C     -211.226     496.991     295.282
  O     -210.332     498.081     295.489
  C     -212.610     497.301     295.878
  O     -213.292     498.253     295.015
  C     -213.482     496.045     295.954
  O     -214.440     496.121     297.013
  C     -214.220     496.073     294.620
  O     -215.439     495.328     294.642
  C     -214.408     497.571     294.408
  N     -217.288     497.611     290.195
  C     -217.488     496.938     291.391
  N     -218.606     496.176     291.461
  N     -216.664     496.990     292.399
  C     -215.552     497.728     292.150
  C     -215.225     498.419     291.009
  C     -216.170     498.384     289.908
  O     -216.029     498.944     288.821
  N     -214.013     499.047     291.132
  C     -213.596     498.725     292.341
  N     -214.511     497.951     293.015
  O     -208.139     499.269     295.344
  O     -208.162     496.755     294.861
  H     -215.706     495.189     293.717
  H     -207.624     498.983     296.117
  H     -217.967     497.556     289.462
  H     -212.665     499.049     292.784
  H     -215.318     497.921     294.913
  H     -213.576     495.616     293.870
  H     -219.161     495.957     290.645
  H     -212.900     495.133     296.063
  H     -218.615     495.446     292.184
  H     -212.493     497.791     296.856
  H     -210.789     496.116     295.764
  H     -211.309     496.772     294.214
  P     -214.859     494.762     297.750
  C     -217.477     494.382     297.948
  O     -216.286     494.950     298.457
  O     -213.839     494.666     298.979
  O     -214.809     493.541     296.889
  H     -213.263     493.886     298.878
  H     -218.297     494.642     298.585
  H     -217.377     493.317     297.912
  H     -217.658     494.757     296.962

 6  7  8  9  10  11  12  13  14  15  26  29  33  34 0
 6-311+G(2d,p)
 ****
 36  38  39  40  41 0
 6-311+G(2d,p)
 ****
 1  2  3  4  5  16  17  18  19  20  21  22  23  24  25 0
 3-21G
 ****
 27  28  30  31  32  35  37  42  43  44  45  46  47 0
 3-21G
 ****
 48  49 0
 3-21G
 ****


