%nproc=1
%NoSave
%Mem=1900MB
#P OB98/GEN NMR

erre ene a

0 1
  C     -116.490     199.725      95.472
  O     -115.450     200.655      95.711
  H     -116.846     199.344      96.434
  H     -116.126     198.883      94.877
  H     -117.324     200.211      94.959
  P     -114.702     201.302      94.453
  C     -112.858     199.487      94.532
  O     -113.875     200.117      93.760
  C     -111.670     199.108      93.650
  O     -110.599     198.576      94.454
  C     -111.985     198.035      92.613
  O     -112.731     198.579      91.543
  C     -110.581     197.570      92.259
  O     -109.943     198.492      91.360
  C     -109.895     197.598      93.648
  N     -109.870     196.299      94.313
  C     -108.831     195.436      93.936
  O     -108.016     195.783      93.083
  N     -108.764     194.200      94.532
  C     -109.622     193.869      95.446
  N     -109.494     192.633      95.997
  C     -110.705     194.762      95.896
  C     -110.777     195.944      95.285
  O     -113.901     202.539      94.724
  O     -115.879     201.581      93.405
  H     -110.576     198.643      90.631
  H     -116.206     202.497      93.494
  H     -111.394     194.449      96.670
  H     -111.549     196.661      95.553
  H     -108.858     197.952      93.557
  H     -110.578     196.593      91.771
  H     -112.516     197.199      93.080
  H     -111.300     200.022      93.168
  H     -108.722     192.061      95.671
  H     -113.298     198.591      94.979
  H     -109.996     192.334      96.823
  H     -112.527     200.147      95.344
  P     -114.126     197.937      91.083
  C     -112.837     195.850      90.304
  O     -113.901     196.346      91.103
  O     -114.683     198.474      89.808
  O     -115.083     198.165      92.344
  H     -115.396     199.105      92.376
  H     -112.786     194.785      90.398
  H     -111.914     196.281      90.631
  H     -113.009     196.110      89.280

 6  7  8  9  10  11  12  13  14  15  16  26  30  31  32  33  35 0
 6-311+G(2d,p)
 ****
 37  38 0
 6-311+G(2d,p)
 ****
 1  2  3  4  5  17  18  19  20  21  22  23  24  25 0
 3-21G
 ****
 27  28  29  34  36  39  40  41  42  43  44  45  46 0
 3-21G
 ****


