%nproc=1
%NoSave
%Mem=1900MB
#P OB98/GEN NMR

erre ene a

0 1
  C      971.114     -99.306     294.436
  O      972.240     -98.507     294.055
  P      973.610     -98.716     294.871
  C      975.286    -100.725     294.762
  O      974.409     -99.847     294.065
  C      976.458    -101.121     293.864
  O      975.973    -101.588     292.572
  C      977.411     -99.985     293.545
  O      978.245     -99.684     294.662
  C      978.147    -100.549     292.336
  O      979.174    -101.466     292.751
  C      977.020    -101.319     291.610
  N      976.504    -100.614     290.445
  C      977.409    -100.417     289.404
  O      978.582    -100.792     289.446
  N      976.925     -99.764     288.304
  C      975.659     -99.262     288.158
  O      975.287     -98.691     287.139
  C      974.766     -99.449     289.307
  C      975.219    -100.104     290.389
  O      973.074     -99.457     296.182
  O      974.342     -97.439     295.113
  H      972.328    -100.066     296.003
  H      978.789    -102.003     293.473
  H      977.568     -99.625     287.529
  H      973.760     -99.042     289.245
  H      974.572    -100.252     291.248
  H      977.385    -102.302     291.283
  H      978.628     -99.773     291.735
  H      976.845     -99.086     293.253
  H      976.996    -101.950     294.346
  H      974.749    -101.630     295.073
  H      975.641    -100.222     295.671
  P      977.971     -98.287     295.410
  C      975.953     -97.628     296.936
  O      976.911     -98.600     296.569
  O      977.125     -97.501     294.306
  O      979.226     -97.589     295.850
  H      976.442     -98.052     293.889
  H      975.130     -98.120     297.458
  H      975.551     -97.107     296.062
  H      976.413     -96.896     297.613
  H      970.278     -99.064     293.814
  H      970.867     -99.109     295.458
  H      971.356    -100.342     294.321

 3  4  5  6  7  8  9  10  11  12  13  24  28  29  30  31  32 0
 6-311+G(2d,p)
 ****
 33  34 0
 6-311+G(2d,p)
 ****
 1  2  14  15  16  17  18  19  20  21  22  23  25  26  27 0
 3-21G
 ****
 35  36  37  38  39  40  41  42  43  44  45 0
 3-21G
 ****


