%nproc=1
%NoSave
%Mem=1900MB
#P OB98/GEN NMR

erre ene a

0 1
  C      607.882    -108.856    -107.566
  O      607.517    -110.243    -107.545
  P      608.278    -111.356    -108.417
  C      608.877    -112.908    -106.444
  O      609.368    -112.088    -107.503
  C      609.635    -114.241    -106.361
  O      611.015    -114.022    -106.020
  C      609.106    -115.210    -105.309
  O      607.914    -115.836    -105.747
  C      610.299    -116.155    -105.160
  O      610.307    -117.152    -106.192
  C      611.490    -115.187    -105.318
  N      612.097    -114.831    -104.038
  C      612.730    -115.869    -103.341
  O      612.708    -117.020    -103.776
  N      613.349    -115.575    -102.142
  C      613.279    -114.375    -101.661
  N      613.917    -114.138    -100.475
  C      612.546    -113.275    -102.321
  C      611.984    -113.573    -103.495
  O      608.808    -110.850    -109.717
  O      607.176    -112.501    -108.674
  H      611.055    -117.753    -106.000
  H      607.356    -112.930    -109.532
  H      612.484    -112.293    -101.864
  H      611.438    -112.824    -104.056
  H      612.265    -115.633    -105.959
  H      610.292    -116.687    -104.199
  H      608.934    -114.682    -104.368
  H      609.611    -114.705    -107.363
  H      614.416    -114.904    -100.053
  H      607.812    -113.105    -106.627
  H      613.922    -113.238    -100.020
  H      608.968    -112.363    -105.498
  P      607.171    -116.900    -104.796
  C      605.866    -115.108    -103.493
  O      606.821    -116.152    -103.421
  O      607.869    -118.215    -104.641
  O      605.736    -117.085    -105.475
  H      605.426    -117.995    -105.309
  H      605.425    -114.961    -102.506
  H      605.075    -115.352    -104.213
  H      606.367    -114.186    -103.801
  H      607.239    -108.308    -106.910
  H      607.784    -108.476    -108.562
  H      608.896    -108.749    -107.242

 3  4  5  6  7  8  9  10  11  12  13  23  27  28  29  30  32 0
 6-311+G(2d,p)
 ****
 34  35 0
 6-311+G(2d,p)
 ****
 1  2  14  15  16  17  18  19  20  21  22  24  25  26 0
 3-21G
 ****
 31  33  36  37  38  39  40  41  42  43  44  45  46 0
 3-21G
 ****


