%nproc=1
%NoSave
%Mem=1900MB
#P OB98/GEN NMR

erre ene a

0 1
  C       -3.998     143.900     315.535
  O       -2.892     144.309     314.752
  P       -2.352     143.323     313.606
  C       -0.821     142.218     315.436
  O       -1.724     142.052     314.358
  C        0.324     141.204     315.333
  O       -0.202     139.875     315.611
  C        1.003     141.152     313.956
  O        2.394     140.881     314.184
  C        0.334     139.960     313.296
  O        1.109     139.411     312.242
  C        0.150     139.027     314.498
  N       -0.872     138.002     314.289
  C       -0.585     136.973     313.397
  O        0.462     136.887     312.759
  N       -1.579     136.035     313.232
  C       -2.817     136.068     313.807
  O       -3.673     135.210     313.610
  C       -3.077     137.203     314.702
  C       -2.107     138.097     314.905
  O       -1.084     144.130     313.072
  O       -3.375     142.997     312.569
  H       -0.613     144.610     313.777
  H        0.726     138.546     312.005
  H       -1.383     135.262     312.618
  H       -4.056     137.270     315.163
  H       -2.274     138.946     315.561
  H        1.105     138.550     314.749
  H       -0.631     140.271     312.878
  H        0.893     142.085     313.397
  H        1.053     141.436     316.118
  H       -1.356     142.066     316.380
  H       -0.434     143.243     315.428
  P        3.474     141.565     313.201
  C        4.144     139.449     311.812
  O        3.499     140.700     311.854
  O        4.839     141.133     313.929
  O        3.339     143.047     313.047
  H        4.860     140.186     314.155
  H        3.772     138.884     310.950
  H        3.943     138.865     312.720
  H        5.223     139.590     311.700
  H       -4.232     144.663     316.248
  H       -3.755     142.994     316.049
  H       -4.843     143.734     314.900

 3  4  5  6  7  8  9  10  11  12  13  24  28  29  30  31  32 0
 6-311+G(2d,p)
 ****
 33  34 0
 6-311+G(2d,p)
 ****
 1  2  14  15  16  17  18  19  20  21  22  23  25  26  27 0
 3-21G
 ****
 35  36  37  38  39  40  41  42  43  44  45 0
 3-21G
 ****


