%nproc=1
%NoSave
%Mem=1900MB
#P OB98/GEN NMR

erre ene a

0 1
  C      431.969     148.611     237.934
  O      431.023     148.127     238.894
  P      430.096     149.193     239.657
  C      427.824     148.883     238.458
  O      428.587     148.653     239.645
  C      426.994     147.637     238.090
  O      427.863     146.651     237.478
  C      426.347     146.928     239.285
  O      425.045     147.344     239.698
  C      426.186     145.515     238.737
  O      424.990     145.424     237.947
  C      427.405     145.326     237.839
  N      428.649     140.990     240.268
  C      427.486     141.429     239.730
  N      427.245     142.593     239.099
  C      428.351     143.356     239.038
  C      429.616     143.038     239.537
  C      429.740     141.799     240.183
  N      430.919     141.350     240.742
  N      430.504     144.067     239.295
  C      429.790     144.987     238.671
  N      428.490     144.596     238.474
  O      430.271     150.623     239.248
  O      430.516     148.984     241.195
  H      424.244     145.596     238.552
  H      430.521     149.851     241.639
  H      426.646     140.746     239.817
  H      430.172     145.943     238.343
  H      427.175     144.799     236.903
  H      426.087     144.760     239.536
  H      427.022     146.915     240.157
  H      426.226     147.920     237.362
  H      428.509     149.118     237.631
  H      430.915     140.475     241.222
  H      431.731     141.962     240.740
  H      427.216     149.765     238.627
  P      424.585     147.242     241.236
  C      423.587     149.658     241.306
  O      423.360     148.274     241.391
  O      425.677     147.426     242.242
  O      423.867     145.817     241.283
  H      423.037     145.769     240.791
  H      422.616     150.164     241.221
  H      424.185     149.915     240.431
  H      424.082     150.013     242.217
  H      432.506     147.786     237.516
  H      432.655     149.277     238.414
  H      431.452     149.132     237.155

 3  4  5  6  7  8  9  10  11  12  22  25  29  30  31  32 0
 6-311+G(2d,p)
 ****
 33  36  37 0
 6-311+G(2d,p)
 ****
 1  2  13  14  15  16  17  18  19  20  21  23  24  26 0
 3-21G
 ****
 27  28  34  35  38  39  40  41  42  43  44  45  46  47  48 0
 3-21G
 ****


