%nproc=1
%NoSave
%Mem=1900MB
#P OB98/GEN NMR

erre ene a

0 1
  C       47.911     -70.193       2.890
  O       47.591     -70.667       4.187
  P       47.679     -69.623       5.404
  C       49.622     -70.931       6.526
  O       49.176     -69.699       5.980
  C       50.895     -70.733       7.351
  O       51.908     -70.108       6.513
  C       50.718     -69.845       8.595
  O       51.592     -70.366       9.603
  C       51.201     -68.495       8.093
  O       51.512     -67.573       9.123
  C       52.372     -68.933       7.217
  N       55.111     -64.650       6.669
  C       54.943     -65.483       7.721
  N       54.204     -66.611       7.790
  C       53.605     -66.857       6.612
  C       53.666     -66.091       5.460
  C       54.464     -64.936       5.515
  N       54.624     -64.082       4.441
  N       52.896     -66.646       4.459
  C       52.376     -67.730       4.998
  N       52.792     -67.911       6.288
  O       46.811     -70.326       6.547
  O       47.184     -68.244       5.091
  H       50.689     -67.233       9.526
  H       46.286     -69.672       7.047
  H       55.474     -65.208       8.628
  H       51.688     -68.405       4.505
  H       53.244     -69.225       7.815
  H       50.411     -68.040       7.482
  H       49.694     -69.837       8.979
  H       51.276     -71.720       7.642
  H       49.847     -71.630       5.713
  H       55.050     -63.187       4.641
  H       53.983     -64.191       3.666
  H       48.823     -71.369       7.134
  P       51.068     -70.447      11.118
  C       52.654     -68.506      11.688
  O       51.316     -68.966      11.691
  O       52.261     -71.263      11.809
  O       49.715     -71.040      11.310
  H       53.129     -70.873      11.602
  H       52.665     -67.460      12.008
  H       53.077     -68.573      10.681
  H       53.253     -69.096      12.388
  H       47.810     -70.990       2.184
  H       48.919     -69.833       2.880
  H       47.246     -69.397       2.627

 3  4  5  6  7  8  9  10  11  12  22  25  29  30  31  32 0
 6-311+G(2d,p)
 ****
 33  36  37 0
 6-311+G(2d,p)
 ****
 1  2  13  14  15  16  17  18  19  20  21  23  24  26 0
 3-21G
 ****
 27  28  34  35  38  39  40  41  42  43  44  45  46  47  48 0
 3-21G
 ****


