%nproc=1
%NoSave
%Mem=1900MB
#P OB98/GEN NMR

erre ene a

0 1
  C     -400.690    -176.427    -484.942
  O     -400.740    -176.172    -483.548
  H     -401.027    -175.529    -485.473
  H     -401.344    -177.260    -485.209
  H     -399.666    -176.643    -485.249
  P     -400.532    -177.409    -482.548
  C     -402.704    -176.783    -481.294
  O     -402.009    -177.790    -482.027
  C     -404.178    -177.160    -481.117
  O     -404.864    -177.119    -482.391
  C     -404.398    -178.570    -480.581
  O     -404.001    -178.747    -479.241
  C     -405.840    -178.855    -480.986
  O     -406.799    -178.380    -480.041
  C     -405.964    -178.051    -482.312
  N     -406.031    -178.924    -483.476
  C     -407.301    -179.164    -483.981
  O     -408.337    -178.715    -483.477
  N     -407.362    -180.003    -485.071
  C     -406.303    -180.636    -485.645
  O     -406.436    -181.408    -486.594
  C     -404.983    -180.367    -485.054
  C     -404.908    -179.528    -484.010
  O     -399.534    -177.202    -481.445
  O     -400.164    -178.632    -483.523
  H     -407.667    -178.728    -480.312
  H     -399.762    -179.380    -483.016
  H     -408.282    -180.181    -485.452
  H     -404.123    -180.851    -485.493
  H     -403.945    -179.313    -483.556
  H     -406.881    -177.440    -482.290
  H     -406.011    -179.931    -481.115
  H     -403.770    -179.250    -481.174
  H     -404.652    -176.410    -480.455
  H     -402.637    -175.853    -481.863
  H     -402.229    -176.638    -480.317
  P     -403.995    -180.172    -478.504
  C     -405.426    -179.573    -476.410
  O     -405.349    -180.295    -477.640
  O     -402.709    -180.611    -477.888
  O     -404.290    -181.169    -479.752
  H     -403.811    -181.998    -479.575
  H     -406.376    -179.750    -475.951
  H     -405.313    -178.527    -476.603
  H     -404.647    -179.901    -475.754

 6  7  8  9  10  11  12  13  14  15  16  26  31  32  33  34  35 0
 6-311+G(2d,p)
 ****
 36  37 0
 6-311+G(2d,p)
 ****
 1  2  3  4  5  17  18  19  20  21  22  23  24  25 0
 3-21G
 ****
 27  28  29  30  38  39  40  41  42  43  44  45 0
 3-21G
 ****


