%nproc=1
%NoSave
%Mem=1900MB
#P OB98/GEN NMR

erre ene a

0 1
  C      359.741    -155.583     -46.088
  O      359.403    -156.955     -46.096
  P      360.435    -158.036     -46.678
  C      358.614    -159.794     -47.124
  O      359.643    -158.991     -47.693
  C      357.550    -160.118     -48.167
  O      357.070    -158.909     -48.804
  C      358.044    -160.994     -49.308
  O      358.232    -162.336     -48.904
  C      356.942    -160.779     -50.338
  O      355.803    -161.601     -50.047
  C      356.600    -159.292     -50.120
  N      357.160    -158.433     -51.154
  C      356.328    -158.158     -52.244
  O      355.222    -158.690     -52.333
  N      356.776    -157.289     -53.209
  C      357.992    -156.837     -53.153
  N      358.361    -155.935     -54.101
  C      358.953    -157.238     -52.105
  C      358.471    -158.010     -51.136
  O      361.253    -158.751     -45.654
  O      361.376    -157.183     -47.657
  H      362.308    -157.376     -47.444
  H      355.147    -161.429     -50.754
  H      359.976    -156.887     -52.144
  H      359.098    -158.335     -50.313
  H      355.512    -159.150     -50.099
  H      357.268    -161.025     -51.355
  H      358.988    -160.593     -49.697
  H      356.704    -160.596     -47.656
  H      357.669    -155.674     -54.791
  H      358.164    -159.247     -46.293
  H      359.140    -155.295     -53.969
  H      359.059    -160.718     -46.729
  P      359.712    -162.936     -49.050
  C      358.436    -165.188     -49.150
  O      359.572    -164.451     -49.550
  O      360.200    -163.085     -47.528
  O      360.655    -162.089     -49.841
  H      361.154    -162.882     -47.467
  H      358.310    -166.034     -49.829
  H      357.530    -164.574     -49.177
  H      358.589    -165.572     -48.136
  H      358.935    -155.020     -45.666
  H      359.920    -155.254     -47.090
  H      360.624    -155.437     -45.502

 3  4  5  6  7  8  9  10  11  12  13  24  27  28  29  30  32 0
 6-311+G(2d,p)
 ****
 34  35 0
 6-311+G(2d,p)
 ****
 1  2  14  15  16  17  18  19  20  21  22  23  25  26 0
 3-21G
 ****
 31  33  36  37  38  39  40  41  42  43  44  45  46 0
 3-21G
 ****


