%nproc=1
%NoSave
%Mem=1900MB
#P OB98/GEN NMR

erre ene a

0 1
  C     -283.819    -534.723     384.779
  O     -283.454    -533.954     385.905
  H     -284.892    -534.599     384.600
  H     -283.610    -535.781     384.960
  H     -283.270    -534.383     383.895
  P     -281.909    -534.002     386.345
  C     -282.465    -535.547     388.354
  O     -281.905    -534.319     387.926
  C     -283.320    -535.334     389.607
  O     -282.439    -535.082     390.744
  C     -284.289    -534.143     389.505
  O     -285.512    -534.485     390.168
  C     -283.586    -533.059     390.301
  O     -284.489    -532.066     390.783
  C     -282.921    -533.889     391.395
  N     -281.914    -530.064     394.505
  C     -283.122    -530.572     394.077
  N     -284.241    -529.970     394.543
  N     -283.230    -531.589     393.253
  C     -282.032    -532.107     392.890
  C     -280.767    -531.690     393.238
  C     -280.662    -530.550     394.124
  O     -279.624    -530.037     394.531
  N     -279.809    -532.459     392.631
  C     -280.490    -533.347     391.918
  N     -281.843    -533.172     392.047
  O     -281.456    -532.466     386.269
  O     -281.032    -534.890     385.527
  H     -283.973    -531.413     391.301
  H     -280.505    -532.399     386.051
  H     -281.890    -529.271     395.129
  H     -280.058    -534.115     391.293
  H     -283.625    -534.186     392.177
  H     -282.832    -532.558     389.673
  H     -284.238    -529.206     395.197
  H     -284.501    -533.837     388.476
  H     -285.140    -530.333     394.245
  H     -283.861    -536.264     389.831
  H     -281.657    -536.252     388.582
  H     -283.087    -535.958     387.555
  P     -286.608    -535.304     389.328
  C     -288.907    -534.738     390.412
  O     -287.835    -535.668     390.301
  O     -285.891    -536.720     389.085
  O     -286.986    -534.658     388.029
  H     -285.629    -536.796     388.156
  H     -289.641    -535.119     391.091
  H     -289.353    -534.591     389.450
  H     -288.533    -533.805     390.778

 6  7  8  9  10  11  12  13  14  15  26  29  33  34 0
 6-311+G(2d,p)
 ****
 36  38  39  40  41 0
 6-311+G(2d,p)
 ****
 1  2  3  4  5  16  17  18  19  20  21  22  23  24  25 0
 3-21G
 ****
 27  28  30  31  32  35  37  42  43  44  45  46  47 0
 3-21G
 ****
 48  49 0
 3-21G
 ****


