%nproc=1
%NoSave
%Mem=1900MB
#P OB98/GEN NMR

erre ene a

0 1
  C      103.004     -76.274    -261.457
  O      103.979     -75.973    -262.433
  H      102.337     -77.045    -261.855
  H      102.411     -75.388    -261.218
  H      103.479     -76.661    -260.550
  P      105.046     -74.819    -262.125
  C      103.381     -73.193    -263.241
  O      104.241     -73.429    -262.130
  C      102.493     -71.972    -262.968
  O      101.778     -72.215    -261.731
  C      103.306     -70.679    -262.809
  O      102.854     -69.626    -263.658
  C      103.281     -70.432    -261.306
  O      103.431     -69.079    -260.927
  C      101.959     -71.075    -260.871
  N      101.931     -71.480    -259.466
  C      101.088     -70.770    -258.616
  O      100.349     -69.851    -258.955
  N      101.104     -71.169    -257.303
  C      101.863     -72.167    -256.774
  O      101.831     -72.484    -255.591
  C      102.751     -72.864    -257.718
  C      102.745     -72.492    -259.002
  O      106.275     -74.832    -262.971
  O      105.398     -75.022    -260.576
  H      103.143     -68.996    -259.995
  H      106.263     -75.466    -260.493
  H      100.488     -70.671    -256.680
  H      103.376     -73.658    -257.331
  H      103.386     -72.986    -259.727
  H      101.127     -70.390    -261.035
  H      104.113     -70.985    -260.853
  H      104.344     -70.828    -263.126
  H      101.751     -71.889    -263.768
  H      102.764     -74.086    -263.385
  H      103.980     -73.021    -264.140
  P      103.650     -69.079    -264.928
  C      104.639     -66.865    -263.929
  O      104.868     -68.184    -264.406
  O      102.810     -68.506    -266.019
  O      104.371     -70.400    -265.511
  H      104.418     -70.286    -266.482
  H      105.568     -66.429    -263.626
  H      103.972     -66.899    -263.093
  H      104.205     -66.274    -264.708

 6  7  8  9  10  11  12  13  14  15  16  26  31  32  33  34  35 0
 6-311+G(2d,p)
 ****
 36  37 0
 6-311+G(2d,p)
 ****
 1  2  3  4  5  17  18  19  20  21  22  23  24  25 0
 3-21G
 ****
 27  28  29  30  38  39  40  41  42  43  44  45 0
 3-21G
 ****


