%nproc=1
%NoSave
%Mem=1900MB
#P OB98/GEN NMR

erre ene a

0 1
  C      138.173     204.138     -61.210
  O      139.469     204.131     -60.645
  H      138.243     203.817     -62.252
  H      137.743     205.143     -61.182
  H      137.525     203.442     -60.672
  P      139.672     204.715     -59.167
  C      139.215     206.960     -57.991
  O      139.256     206.264     -59.230
  C      138.604     208.351     -58.172
  O      139.486     209.136     -59.017
  C      137.215     208.331     -58.819
  O      136.422     209.354     -58.212
  C      137.517     208.676     -60.262
  O      136.388     209.226     -60.914
  C      138.714     209.624     -60.130
  N      139.497     209.665     -61.364
  C      138.947     210.390     -62.427
  O      137.866     210.966     -62.294
  N      139.597     210.394     -63.634
  C      140.674     209.689     -63.788
  N      141.246     209.705     -65.021
  C      141.273     208.888     -62.703
  C      140.641     208.921     -61.530
  O      140.995     204.449     -58.531
  O      138.476     204.052     -58.333
  H      136.636     209.494     -61.824
  H      138.771     203.210     -57.939
  H      142.169     208.311     -62.884
  H      141.003     208.354     -60.680
  H      138.380     210.642     -59.889
  H      137.812     207.769     -60.806
  H      136.713     207.363     -58.726
  H      138.575     208.848     -57.194
  H      140.785     210.251     -65.740
  H      140.243     207.056     -57.626
  H      142.059     209.165     -65.272
  H      138.634     206.386     -57.263
  P      135.237     208.976     -57.199
  C      132.718     208.527     -57.249
  O      133.884     208.746     -58.036
  O      135.094     209.898     -56.032
  O      135.617     207.499     -56.702
  H      135.281     207.369     -55.793
  H      131.875     208.385     -57.892
  H      132.548     209.376     -56.620
  H      132.855     207.656     -56.643

 6  7  8  9  10  11  12  13  14  15  16  26  30  31  32  33  35 0
 6-311+G(2d,p)
 ****
 37  38 0
 6-311+G(2d,p)
 ****
 1  2  3  4  5  17  18  19  20  21  22  23  24  25 0
 3-21G
 ****
 27  28  29  34  36  39  40  41  42  43  44  45  46 0
 3-21G
 ****


