%nproc=1
%NoSave
%Mem=1900MB
#P OB98/GEN NMR

erre ene a

0 1
  C      483.321     151.696    -178.270
  O      483.298     150.603    -179.168
  H      482.439     151.673    -177.623
  H      484.218     151.628    -177.645
  H      483.348     152.639    -178.827
  P      482.037     150.500    -180.151
  C      483.249     149.587    -182.272
  O      482.391     149.308    -181.166
  C      483.828     148.280    -182.802
  O      484.725     147.703    -181.826
  C      482.776     147.208    -183.091
  O      482.152     147.380    -184.349
  C      483.635     145.954    -183.065
  O      484.380     145.851    -184.292
  C      484.585     146.253    -181.890
  N      483.649     142.093    -179.053
  C      484.200     142.243    -180.279
  N      484.434     143.389    -180.957
  C      484.049     144.452    -180.232
  C      483.469     144.450    -178.976
  C      483.269     143.196    -178.375
  N      482.671     143.034    -177.140
  N      483.185     145.742    -178.569
  C      483.592     146.507    -179.561
  N      484.090     145.771    -180.609
  O      482.164     151.804    -181.077
  O      480.703     150.376    -179.497
  H      484.883     146.686    -184.394
  H      481.329     151.963    -181.561
  H      484.495     141.325    -180.785
  H      483.537     147.590    -179.584
  H      485.582     145.833    -182.035
  H      483.046     145.041    -182.963
  H      482.038     147.146    -182.284
  H      484.414     148.502    -183.703
  H      484.060     150.245    -181.940
  H      482.435     142.095    -176.859
  H      482.259     143.841    -176.695
  H      482.671     150.091    -183.057
  P      481.042     146.304    -184.787
  C      479.176     148.105    -184.690
  O      479.846     147.121    -185.469
  O      480.420     145.838    -183.385
  O      481.580     145.149    -185.578
  H      480.145     144.900    -183.419
  H      478.407     148.562    -185.277
  H      479.877     148.850    -184.377
  H      478.740     147.642    -183.830

 6  7  8  9  10  11  12  13  14  15  25  28  32  33  34  35 0
 6-311+G(2d,p)
 ****
 36  39  40 0
 6-311+G(2d,p)
 ****
 1  2  3  4  5  16  17  18  19  20  21  22  23  24 0
 3-21G
 ****
 26  27  29  30  31  37  38  41  42  43  44  45  46  47 0
 3-21G
 ****
 48 0
 3-21G
 ****


