%nproc=1
%NoSave
%Mem=1900MB
#P OB98/GEN NMR

erre ene a

0 1
  C      313.769    -362.528     111.035
  O      314.357    -362.869     112.275
  H      313.804    -363.402     110.379
  H      314.323    -361.710     110.566
  H      312.725    -362.239     111.179
  P      314.454    -361.690     113.363
  C      315.807    -359.489     113.577
  O      315.563    -360.664     112.816
  C      316.724    -358.536     112.810
  O      316.193    -358.266     111.495
  C      316.936    -357.187     113.487
  O      317.954    -357.265     114.474
  C      317.331    -356.321     112.299
  O      318.722    -356.511     111.957
  C      316.418    -356.864     111.188
  N      314.195    -352.334     110.913
  C      315.521    -352.668     111.125
  N      316.376    -351.642     111.323
  N      315.963    -353.895     111.155
  C      314.985    -354.822     111.005
  C      313.642    -354.620     110.788
  C      313.172    -353.253     110.700
  O      312.027    -352.893     110.434
  N      312.975    -355.813     110.661
  C      313.909    -356.732     110.835
  N      315.147    -356.180     111.055
  O      315.182    -362.389     114.607
  O      313.155    -361.085     113.770
  H      318.961    -355.897     111.242
  H      314.790    -362.045     115.432
  H      313.913    -351.372     110.868
  H      313.741    -357.801     110.806
  H      316.904    -356.818     110.208
  H      317.213    -355.255     112.517
  H      316.061    -350.722     111.596
  H      315.996    -356.809     113.916
  H      317.335    -351.892     111.550
  H      317.686    -359.051     112.670
  H      316.285    -359.772     114.520
  H      314.854    -358.994     113.791
  P      317.580    -356.865     115.979
  C      317.023    -354.686     117.276
  O      317.478    -355.266     116.061
  O      318.929    -357.201     116.778
  O      316.425    -357.616     116.551
  H      318.815    -358.018     117.296
  H      317.008    -353.620     117.179
  H      317.682    -354.963     118.072
  H      316.036    -355.038     117.492

 6  7  8  9  10  11  12  13  14  15  26  29  33  34 0
 6-311+G(2d,p)
 ****
 36  38  39  40  41 0
 6-311+G(2d,p)
 ****
 1  2  3  4  5  16  17  18  19  20  21  22  23  24  25 0
 3-21G
 ****
 27  28  30  31  32  35  37  42  43  44  45  46  47 0
 3-21G
 ****
 48  49 0
 3-21G
 ****


