%nproc=1
%NoSave
%Mem=1900MB
#P OB98/GEN NMR

erre ene a

0 1
  C     -258.278    -204.523    -630.547
  O     -257.665    -205.726    -630.967
  H     -259.365    -204.662    -630.572
  H     -258.017    -203.712    -631.230
  H     -257.983    -204.270    -629.527
  P     -256.068    -205.846    -630.889
  C     -255.391    -205.781    -633.380
  O     -255.581    -206.590    -632.229
  C     -254.527    -206.507    -634.419
  O     -253.145    -206.467    -633.981
  C     -254.913    -207.976    -634.623
  O     -254.762    -208.311    -636.001
  C     -253.891    -208.726    -633.794
  O     -253.672    -210.055    -634.274
  C     -252.663    -207.827    -633.919
  N     -249.726    -211.140    -631.480
  C     -250.443    -211.279    -632.646
  N     -250.388    -212.488    -633.253
  N     -251.157    -210.323    -633.185
  C     -251.103    -209.160    -632.483
  C     -250.425    -208.894    -631.311
  C     -249.659    -209.973    -630.725
  O     -249.015    -209.909    -629.682
  N     -250.634    -207.601    -630.904
  C     -251.433    -207.088    -631.819
  N     -251.756    -207.998    -632.791
  O     -255.542    -206.443    -629.621
  O     -255.545    -204.350    -631.098
  H     -252.886    -210.404    -633.793
  H     -255.239    -203.964    -630.252
  H     -249.201    -211.911    -631.106
  H     -251.805    -206.072    -631.828
  H     -252.084    -208.031    -634.828
  H     -254.232    -208.791    -632.753
  H     -249.840    -213.260    -632.910
  H     -255.935    -208.183    -634.304
  H     -250.883    -212.608    -634.132
  H     -254.581    -205.949    -635.360
  H     -254.896    -204.853    -633.074
  H     -256.370    -205.533    -633.811
  P     -256.073    -208.503    -636.907
  C     -256.567    -211.016    -636.706
  O     -256.066    -209.979    -637.539
  O     -256.346    -207.402    -637.887
  O     -257.249    -208.597    -635.815
  H     -258.057    -208.176    -636.179
  H     -256.514    -211.949    -637.227
  H     -257.585    -210.807    -636.450
  H     -255.979    -211.072    -635.814

 6  7  8  9  10  11  12  13  14  15  26  29  33  34 0
 6-311+G(2d,p)
 ****
 36  38  39  40  41 0
 6-311+G(2d,p)
 ****
 1  2  3  4  5  16  17  18  19  20  21  22  23  24  25 0
 3-21G
 ****
 27  28  30  31  32  35  37  42  43  44  45  46  47 0
 3-21G
 ****
 48  49 0
 3-21G
 ****


