%nproc=1
%NoSave
%Mem=1900MB
#P OB98/GEN NMR

erre ene a

0 1
  C      646.325     350.408     349.765
  O      646.242     350.509     351.177
  P      646.473     351.911     351.911
  C      644.246     353.267     351.590
  O      645.058     352.453     352.409
  C      642.783     352.814     351.724
  O      642.631     351.487     351.178
  C      642.338     352.779     353.185
  O      641.695     353.991     353.540
  C      641.424     351.570     353.218
  O      640.111     351.909     352.739
  C      642.128     350.611     352.227
  N      643.257     349.803     352.720
  C      643.063     348.915     353.777
  O      641.975     348.724     354.313
  N      644.177     348.247     354.208
  C      645.434     348.355     353.674
  O      646.455     347.946     354.216
  C      645.518     349.095     352.413
  C      644.453     349.784     352.013
  O      646.839     352.893     350.707
  O      647.518     351.917     352.980
  H      640.207     352.192     351.813
  H      647.812     353.016     350.642
  H      644.070     347.705     355.065
  H      646.462     349.087     351.874
  H      644.506     350.375     351.093
  H      641.411     349.917     351.767
  H      641.289     351.209     354.244
  H      643.199     352.585     353.842
  H      642.146     353.496     351.145
  H      644.576     353.200     350.548
  H      644.343     354.319     351.890
  P      641.929     354.614     354.993
  C      644.233     355.529     354.315
  O      642.920     355.853     354.761
  O      642.343     353.641     356.055
  O      640.522     355.299     355.329
  H      639.985     354.704     355.894
  H      644.736     356.451     354.024
  H      644.182     354.858     353.452
  H      644.786     355.051     355.125
  H      646.141     349.396     349.468
  H      647.302     350.702     349.443
  H      645.594     351.049     349.318

 3  4  5  6  7  8  9  10  11  12  13  23  28  29  30  31  32 0
 6-311+G(2d,p)
 ****
 33  34 0
 6-311+G(2d,p)
 ****
 1  2  14  15  16  17  18  19  20  21  22  24  25  26  27 0
 3-21G
 ****
 35  36  37  38  39  40  41  42  43  44  45 0
 3-21G
 ****


