%nproc=1
%NoSave
%Mem=1900MB
#P OB98/GEN NMR

erre ene a

0 1
  C     -892.210     776.196     306.886
  O     -893.300     775.492     307.456
  P     -894.660     775.395     306.603
  C     -896.870     776.714     306.424
  O     -895.570     776.659     306.976
  C     -897.850     777.371     307.414
  O     -898.030     776.523     308.563
  C     -897.370     778.735     307.925
  O     -898.500     779.590     308.151
  C     -896.780     778.415     309.283
  O     -896.760     779.553     310.147
  C     -897.710     777.280     309.753
  N     -895.970     777.167     314.492
  C     -896.750     778.114     313.865
  N     -897.020     779.241     314.577
  N     -897.220     777.992     312.645
  C     -896.850     776.826     312.049
  C     -896.090     775.796     312.578
  C     -895.570     775.957     313.911
  O     -894.840     775.179     314.525
  N     -895.960     774.783     311.683
  C     -896.600     775.188     310.596
  N     -897.130     776.448     310.767
  O     -895.410     774.154     307.313
  O     -894.450     775.136     305.138
  H     -897.690     779.835     310.281
  H     -895.370     773.365     306.726
  H     -895.620     777.312     315.421
  H     -896.700     774.626     309.666
  H     -898.670     777.680     310.126
  H     -895.750     778.056     309.173
  H     -896.650     779.427     315.507
  H     -896.660     779.252     307.279
  H     -897.560     779.979     314.125
  H     -898.830     777.468     306.917
  H     -897.220     775.708     306.208
  H     -896.860     777.277     305.487
  P     -898.450     781.042     307.472
  C     -897.150     783.179     308.222
  O     -897.150     781.773     308.095
  O     -899.690     781.813     308.128
  O     -898.500     781.014     305.975
  H     -900.000     782.519     307.514
  H     -897.100     783.437     309.280
  H     -898.050     783.653     307.776
  H     -896.270     783.571     307.711
  H     -891.381     776.177     307.562
  H     -892.497     777.210     306.702
  H     -891.929     775.732     305.964

 3  4  5  6  7  8  9  10  11  12  23  26  30  31 0
 6-311+G(2d,p)
 ****
 33  35  36  37  38 0
 6-311+G(2d,p)
 ****
 1  2  13  14  15  16  17  18  19  20  21  22  24  25 0
 3-21G
 ****
 27  28  29  32  34  39  40  41  42  43  44  45  46  47  48  49 0
 3-21G
 ****


