%nproc=1
%NoSave
%Mem=1900MB
#P OB98/GEN NMR

erre ene a

0 1
  C     -419.102     355.345    -240.235
  O     -419.917     355.901    -239.226
  H     -419.747     354.972    -241.041
  H     -418.520     354.511    -239.839
  H     -418.435     356.111    -240.639
  P     -419.177     356.413    -237.895
  C     -419.753     358.944    -238.049
  O     -418.753     357.942    -238.156
  C     -419.723     359.818    -239.307
  O     -420.229     359.065    -240.433
  C     -420.607     361.049    -239.218
  O     -420.013     362.107    -238.484
  C     -420.762     361.399    -240.689
  O     -419.659     362.186    -241.173
  C     -420.789     360.018    -241.363
  N     -422.135     359.645    -241.774
  C     -422.448     359.878    -243.116
  O     -421.655     360.375    -243.913
  N     -423.730     359.569    -243.490
  C     -424.711     359.102    -242.678
  O     -425.854     358.893    -243.072
  C     -424.335     358.884    -241.275
  C     -423.087     359.161    -240.882
  O     -417.793     355.615    -237.923
  O     -419.938     356.183    -236.625
  H     -417.806     354.908    -237.245
  H     -419.874     362.398    -242.109
  H     -423.973     359.737    -244.463
  H     -425.093     358.511    -240.595
  H     -422.782     359.021    -239.862
  H     -420.147     360.008    -242.250
  H     -421.661     361.977    -240.869
  H     -421.588     360.787    -238.815
  H     -418.680     360.100    -239.515
  H     -419.551     359.576    -237.181
  H     -420.728     358.470    -237.924
  P     -420.668     362.484    -237.058
  C     -418.366     362.404    -235.788
  O     -419.677     361.886    -235.950
  O     -421.927     361.503    -237.050
  O     -420.985     363.935    -236.928
  H     -421.774     360.698    -237.591
  H     -417.868     361.874    -235.003
  H     -418.421     363.443    -235.538
  H     -417.820     362.285    -236.701

 6  7  8  9  10  11  12  13  14  15  16  27  31  32  33  34  35 0
 6-311+G(2d,p)
 ****
 36  37 0
 6-311+G(2d,p)
 ****
 1  2  3  4  5  17  18  19  20  21  22  23  24  25 0
 3-21G
 ****
 26  28  29  30  38  39  40  41  42  43  44  45 0
 3-21G
 ****


