%nproc=1
%NoSave
%Mem=1900MB
#P OB98/GEN NMR

erre ene a

0 1
  C     -190.360     -34.214    -236.922
  O     -191.220     -33.341    -237.622
  H     -190.938     -35.074    -236.576
  H     -189.934     -33.705    -236.054
  H     -189.560     -34.567    -237.578
  P     -190.568     -32.011    -238.245
  C     -192.783     -30.647    -238.166
  O     -191.786     -31.256    -238.976
  C     -194.077     -30.460    -238.963
  O     -193.845     -29.511    -240.032
  C     -194.593     -31.756    -239.591
  O     -196.010     -31.833    -239.422
  C     -194.235     -31.623    -241.061
  O     -195.102     -32.384    -241.900
  C     -194.284     -30.106    -241.267
  N     -193.448     -29.682    -242.387
  C     -193.836     -30.109    -243.660
  O     -194.833     -30.821    -243.797
  N     -193.061     -29.769    -244.739
  C     -191.958     -29.112    -244.558
  N     -191.221     -28.824    -245.664
  C     -191.485     -28.682    -243.229
  C     -192.272     -28.991    -242.199
  O     -189.693     -32.577    -239.457
  O     -189.801     -31.168    -237.283
  H     -194.854     -32.202    -242.834
  H     -189.067     -31.894    -239.800
  H     -190.551     -28.149    -243.125
  H     -192.002     -28.718    -241.185
  H     -195.315     -29.774    -241.454
  H     -193.212     -31.989    -241.219
  H     -194.140     -32.648    -239.161
  H     -194.829     -30.011    -238.303
  H     -191.573     -29.144    -246.557
  H     -192.419     -29.673    -237.826
  H     -190.334     -28.345    -245.636
  H     -192.978     -31.283    -237.297
  P     -196.540     -33.012    -238.469
  C     -198.365     -34.217    -239.858
  O     -198.081     -33.274    -238.838
  O     -196.599     -32.326    -237.025
  O     -195.675     -34.228    -238.488
  H     -195.814     -32.566    -236.501
  H     -199.424     -34.287    -239.994
  H     -197.978     -35.174    -239.577
  H     -197.908     -33.902    -240.773

 6  7  8  9  10  11  12  13  14  15  16  26  30  31  32  33  35 0
 6-311+G(2d,p)
 ****
 37  38 0
 6-311+G(2d,p)
 ****
 1  2  3  4  5  17  18  19  20  21  22  23  24  25 0
 3-21G
 ****
 27  28  29  34  36  39  40  41  42  43  44  45  46 0
 3-21G
 ****


