%nproc=1
%NoSave
%Mem=1900MB
#P OB98/GEN NMR

erre ene a

0 1
  C     -159.695     189.901     458.371
  O     -158.303     190.127     458.493
  H     -159.856     189.042     457.716
  H     -160.184     190.775     457.938
  H     -160.127     189.682     459.357
  P     -157.850     191.341     459.439
  C     -156.649     192.742     457.598
  O     -157.753     192.639     458.495
  C     -157.126     193.321     456.268
  O     -158.129     192.450     455.688
  C     -157.789     194.687     456.382
  O     -156.850     195.734     456.518
  C     -158.575     194.739     455.083
  O     -157.753     195.168     453.987
  C     -159.000     193.280     454.889
  N     -163.858     193.774     453.380
  C     -162.689     194.004     452.738
  N     -161.432     193.832     453.211
  C     -161.456     193.348     454.470
  C     -162.570     193.070     455.241
  C     -163.826     193.295     454.645
  N     -165.015     193.091     455.300
  N     -162.199     192.627     456.495
  C     -160.880     192.640     456.481
  N     -160.387     193.065     455.273
  O     -156.322     190.992     459.764
  O     -158.661     191.514     460.680
  H     -156.999     194.548     453.951
  H     -156.267     190.586     460.650
  H     -162.766     194.377     451.724
  H     -160.237     192.354     457.307
  H     -158.901     192.952     453.845
  H     -159.411     195.436     455.165
  H     -158.493     194.692     457.224
  H     -156.267     193.360     455.579
  H     -156.222     191.748     457.437
  H     -155.889     193.389     458.049
  H     -165.875     193.339     454.836
  H     -165.001     192.844     456.283
  P     -156.701     196.419     457.959
  C     -157.463     198.765     457.094
  O     -157.695     197.683     457.990
  O     -155.243     197.091     457.918
  O     -156.852     195.488     459.115
  H     -154.827     197.033     458.803
  H     -158.209     199.518     457.243
  H     -157.512     198.410     456.086
  H     -156.495     199.180     457.280

 6  7  8  9  10  11  12  13  14  15  25  28  32  33  34  35 0
 6-311+G(2d,p)
 ****
 36  37  40 0
 6-311+G(2d,p)
 ****
 1  2  3  4  5  16  17  18  19  20  21  22  23  24 0
 3-21G
 ****
 26  27  29  30  31  38  39 41  42  43  44  45  46  47  48 0
 3-21G
 ****


