%nproc=1
%NoSave
%Mem=1900MB
#P OB98/GEN NMR

erre ene a

0 1
  C     -203.549    -181.657    -231.721
  O     -203.347    -181.185    -230.403
  H     -203.246    -180.877    -232.423
  H     -204.608    -181.880    -231.877
  H     -202.948    -182.553    -231.903
  P     -203.563    -182.246    -229.216
  C     -201.433    -181.442    -227.907
  O     -202.110    -182.487    -228.582
  C     -200.923    -181.921    -226.547
  O     -202.054    -182.366    -225.756
  C     -199.929    -183.080    -226.636
  O     -198.958    -182.926    -225.599
  C     -200.788    -184.299    -226.342
  O     -200.016    -185.398    -225.864
  C     -201.794    -183.721    -225.335
  N     -203.023    -184.507    -225.261
  C     -202.988    -185.653    -224.460
  O     -201.954    -185.966    -223.869
  N     -204.108    -186.441    -224.379
  C     -205.153    -186.148    -225.088
  N     -206.222    -186.983    -224.982
  C     -205.220    -184.975    -225.980
  C     -204.134    -184.201    -226.010
  O     -203.851    -183.594    -230.030
  O     -204.630    -181.873    -228.243
  H     -200.624    -186.143    -225.665
  H     -203.248    -183.730    -230.779
  H     -206.110    -184.778    -226.559
  H     -204.099    -183.315    -226.632
  H     -201.353    -183.678    -224.331
  H     -201.305    -184.623    -227.253
  H     -199.431    -183.137    -227.606
  H     -200.484    -181.066    -226.018
  H     -206.126    -187.787    -224.377
  H     -202.101    -180.587    -227.762
  H     -207.065    -186.884    -225.528
  H     -200.597    -181.119    -228.534
  P     -197.470    -182.473    -225.973
  C     -197.559    -180.437    -224.381
  O     -197.309    -180.902    -225.702
  O     -196.961    -182.947    -227.292
  O     -196.600    -183.114    -224.781
  H     -195.778    -183.469    -225.172
  H     -197.416    -179.377    -224.343
  H     -196.883    -180.913    -223.701
  H     -198.566    -180.671    -224.105

 6  7  8  9  10  11  12  13  14  15  16  26  30  31  32  33  35 0
 6-311+G(2d,p)
 ****
 37  38 0
 6-311+G(2d,p)
 ****
 1  2  3  4  5  17  18  19  20  21  22  23  24  25 0
 3-21G
 ****
 27  28  29  34  36  39  40  41  42  43  44  45  46 0
 3-21G
 ****


