%nproc=1
%NoSave
%Mem=1900MB
#P OB98/GEN NMR

erre ene a

0 1
  C       56.911      -8.371      26.984
  O       58.205      -7.826      26.822
  H       56.977      -9.428      27.254
  H       56.400      -7.835      27.789
  H       56.335      -8.258      26.061
  P       59.139      -8.502      25.706
  C       60.267      -9.630      27.762
  O       60.442      -9.004      26.499
  C       61.500     -10.466      28.085
  O       61.396     -11.008      29.422
  C       61.687     -11.666      27.165
  O       62.311     -11.322      25.940
  C       62.592     -12.538      28.018
  O       63.937     -12.031      27.976
  C       61.989     -12.335      29.416
  N       60.156     -15.376      33.104
  C       61.159     -14.470      33.097
  N       61.570     -13.686      32.080
  C       60.824     -13.897      30.985
  C       59.766     -14.780      30.844
  C       59.436     -15.551      31.972
  N       58.436     -16.497      31.974
  N       59.259     -14.730      29.560
  C       59.987     -13.819      28.947
  N       60.967     -13.311      29.756
  O       59.688      -7.257      24.864
  O       58.492      -9.544      24.857
  H       64.489     -12.641      28.501
  H       60.086      -7.562      24.027
  H       61.704     -14.366      34.030
  H       59.853     -13.503      27.920
  H       62.744     -12.366      30.210
  H       62.628     -13.575      27.672
  H       60.741     -12.194      26.995
  H       62.378      -9.809      28.060
  H       59.384     -10.276      27.721
  H       58.375     -17.100      32.779
  H       57.995     -16.739      31.099
  H       60.119      -8.864      28.529
  P       61.574     -11.766      24.583
  C       62.962     -13.901      24.071
  O       62.666     -12.556      23.712
  O       61.407     -10.383      23.798
  O       60.270     -12.466      24.783
  H       60.596     -10.387      23.255
  H       63.702     -14.293      23.405
  H       62.073     -14.492      24.004
  H       63.334     -13.929      25.074

 6  7  8  9  10  11  12  13  14  15  25  28  32  33  34  35 0
 6-311+G(2d,p)
 ****
 36  39  40 0
 6-311+G(2d,p)
 ****
 1  2  3  4  5  16  17  18  19  20  21  22  23  24 0
 3-21G
 ****
 26  27  29  30  31  37  38  41  42  43  44  45  46  47 0
 3-21G
 ****
 48 0
 3-21G
 ****


