%nproc=1
%NoSave
%Mem=1900MB
#P OB98/GEN NMR

erre ene a

0 1
  C      263.860     348.829    -466.094
  O      263.930     348.733    -464.683
  H      264.390     349.723    -466.437
  H      264.337     347.947    -466.530
  H      262.816     348.864    -466.420
  P      263.253     349.924    -463.850
  C      265.298     350.925    -462.601
  O      264.137     350.104    -462.523
  C      265.895     351.119    -461.208
  O      264.866     351.517    -460.283
  C      266.531     349.870    -460.605
  O      267.836     349.642    -461.120
  C      266.568     350.255    -459.134
  O      267.682     351.135    -458.892
  C      265.246     351.015    -458.968
  N      263.368     348.707    -454.806
  C      264.434     349.523    -454.985
  N      264.855     350.115    -456.117
  C      264.042     349.812    -457.145
  C      262.912     349.016    -457.116
  C      262.580     348.441    -455.873
  N      261.526     347.551    -455.721
  N      262.344     348.924    -458.370
  C      263.132     349.633    -459.147
  N      264.166     350.198    -458.448
  O      261.893     349.261    -463.319
  O      262.990     351.172    -464.626
  H      268.483     350.663    -459.188
  H      261.161     349.508    -463.912
  H      265.026     349.721    -454.095
  H      262.997     349.768    -460.211
  H      265.349     351.891    -458.310
  H      266.682     349.396    -458.468
  H      265.890     348.989    -460.726
  H      266.624     351.941    -461.268
  H      265.029     351.897    -463.019
  H      261.666     346.880    -454.970
  H      261.149     347.193    -456.589
  H      266.025     350.438    -463.261
  P      268.240     348.136    -461.494
  C      270.308     348.206    -459.938
  O      269.821     348.018    -461.262
  O      268.083     348.114    -463.080
  O      267.405     347.073    -460.849
  H      267.468     347.400    -463.349
  H      271.373     348.100    -459.931
  H      269.872     347.474    -459.290
  H      270.045     349.186    -459.597

 6  7  8  9  10  11  12  13  14  15  25  28  32  33  34  35 0
 6-311+G(2d,p)
 ****
 36  39  40 0
 6-311+G(2d,p)
 ****
 1  2  3  4  5  16  17  18  19  20  21  22  23  24 0
 3-21G
 ****
 26  27  29  30  31  37  38  41  42  43  44  45  46  47  48 0
 3-21G
 ****


