%nproc=1
%NoSave
%Mem=1900MB
#P OB98/GEN NMR

erre ene a

0 1
  C     -374.852     780.203     160.218
  O     -374.956     778.793     160.286
  H     -373.845     780.494     160.526
  H     -375.576     780.683     160.887
  H     -375.017     780.542     159.194
  P     -376.417     778.137     160.157
  C     -375.996     777.658     157.654
  O     -376.828     778.311     158.609
  C     -376.748     776.531     156.945
  O     -377.955     777.032     156.330
  C     -375.968     775.886     155.803
  O     -374.828     775.167     156.207
  C     -377.075     775.176     155.040
  O     -377.399     773.906     155.606
  C     -378.261     776.163     155.214
  N     -378.534     776.915     153.999
  C     -379.007     776.176     152.920
  O     -379.170     774.951     152.950
  N     -379.261     776.889     151.781
  C     -379.050     778.217     151.601
  O     -379.279     778.800     150.546
  C     -378.515     778.941     152.768
  C     -378.286     778.272     153.902
  O     -377.450     778.648     161.121
  O     -376.145     776.566     160.280
  H     -378.214     773.602     155.179
  H     -376.983     776.070     160.461
  H     -379.618     776.370     150.991
  H     -378.322     780.007     152.662
  H     -377.891     778.779     154.772
  H     -379.167     775.612     155.491
  H     -376.794     775.000     153.996
  H     -375.602     776.685     155.149
  H     -377.036     775.789     157.696
  H     -375.135     777.236     158.194
  H     -375.634     778.392     156.925
  P     -373.493     775.075     155.343
  C     -372.293     776.686     157.023
  O     -372.585     776.354     155.669
  O     -373.637     774.661     153.910
  O     -372.693     773.897     156.110
  H     -372.188     773.404     155.436
  H     -371.680     777.562     157.051
  H     -371.774     775.873     157.486
  H     -373.206     776.873     157.549

 6  7  8  9  10  11  12  13  14  15  16  26  31  32  33  34  35 0
 6-311+G(2d,p)
 ****
 36  37 0
 6-311+G(2d,p)
 ****
 1  2  3  4  5  17  18  19  20  21  22  23  24  25 0
 3-21G
 ****
 27  28  29  30  38  39  40  41  42  43  44  45 0
 3-21G
 ****


