%nproc=1
%NoSave
%Mem=1900MB
#P OB98/GEN NMR

erre ene a

0 1
  C       -7.326     -53.784       5.345
  O       -8.430     -54.141       6.186
  P       -9.944     -53.694       5.890
  C      -10.202     -52.073       7.880
  O      -10.184     -52.214       6.466
  C      -11.001     -50.840       8.320
  O      -10.352     -49.624       7.835
  C      -12.456     -50.814       7.819
  O      -13.245     -50.271       8.883
  C      -12.367     -49.852       6.643
  O      -13.617     -49.318       6.249
  C      -11.386     -48.826       7.220
  N      -10.814     -47.895       6.254
  C      -11.215     -46.554       6.325
  O      -12.064     -46.180       7.133
  N      -10.652     -45.654       5.452
  C       -9.777     -46.050       4.582
  N       -9.254     -45.106       3.755
  C       -9.341     -47.452       4.459
  C       -9.892     -48.308       5.318
  O      -10.962     -54.683       6.359
  O      -10.032     -53.507       4.303
  H      -10.913     -53.790       3.995
  H      -13.935     -48.735       6.963
  H       -8.603     -47.739       3.725
  H       -9.601     -49.354       5.312
  H      -11.878     -48.265       8.023
  H      -11.946     -50.384       5.786
  H      -12.848     -51.801       7.557
  H      -10.974     -50.793       9.415
  H       -9.570     -44.151       3.876
  H       -9.172     -51.969       8.231
  H       -8.560     -45.302       3.047
  H      -10.626     -52.981       8.324
  P      -13.938     -51.258       9.940
  C      -16.311     -50.989       8.897
  O      -15.255     -51.859       9.251
  O      -14.565     -50.223      10.996
  O      -13.034     -52.222      10.639
  H      -14.655     -50.664      11.860
  H      -16.662     -51.253       7.896
  H      -16.002     -49.940       8.894
  H      -17.132     -51.118       9.607
  H       -6.424     -54.196       5.747
  H       -7.242     -52.718       5.300
  H       -7.488     -54.171       4.361

 3  4  5  6  7  8  9  10  11  12  13  24  27  28  29  30  32 0
 6-311+G(2d,p)
 ****
 34  35 0
 6-311+G(2d,p)
 ****
 1  2  14  15  16  17  18  19  20  21  22  23  25  26 0
 3-21G
 ****
 31  33  36  37  38  39  40  41  42  43  44  45  46 0
 3-21G
 ****


