%nproc=1
%NoSave
%Mem=1900MB
#P OB98/GEN NMR

erre ene a

0 1
  C     1046.138    -654.284    -196.019
  O     1044.844    -654.848    -196.091
  H     1046.873    -655.088    -196.103
  H     1046.271    -653.790    -195.049
  H     1046.299    -653.572    -196.825
  P     1043.582    -653.880    -196.258
  C     1043.325    -654.414    -198.771
  O     1043.566    -653.409    -197.792
  C     1043.080    -653.779    -200.140
  O     1041.928    -652.896    -200.046
  C     1044.263    -652.941    -200.675
  O     1044.256    -653.059    -202.104
  C     1043.848    -651.550    -200.227
  O     1044.600    -650.556    -200.871
  C     1042.351    -651.610    -200.548
  N     1041.582    -650.526    -199.954
  C     1041.731    -649.255    -200.495
  O     1042.447    -649.009    -201.460
  N     1041.029    -648.260    -199.881
  C     1040.207    -648.395    -198.794
  O     1039.579    -647.471    -198.298
  C     1040.113    -649.759    -198.243
  C     1040.789    -650.745    -198.836
  O     1043.479    -652.776    -195.256
  O     1042.327    -654.874    -196.173
  H     1041.962    -654.861    -195.266
  H     1044.201    -649.669    -200.729
  H     1041.119    -647.334    -200.271
  H     1039.492    -649.899    -197.373
  H     1040.746    -651.759    -198.451
  H     1042.180    -651.620    -201.622
  H     1044.013    -651.426    -199.158
  H     1045.228    -653.272    -200.272
  H     1042.807    -654.578    -200.854
  H     1042.450    -654.996    -198.461
  H     1044.193    -655.084    -198.817
  P     1045.527    -653.544    -202.951
  C     1044.601    -655.452    -204.430
  O     1045.367    -655.120    -203.280
  O     1046.833    -653.202    -202.325
  O     1045.381    -652.840    -204.383
  H     1046.263    -652.612    -204.721
  H     1044.568    -656.516    -204.542
  H     1045.052    -655.016    -205.297
  H     1043.606    -655.074    -204.317

 6  7  8  9  10  11  12  13  14  15  16  27  31  32  33  34  35 0
 6-311+G(2d,p)
 ****
 36  37 0
 6-311+G(2d,p)
 ****
 1  2  3  4  5  17  18  19  20  21  22  23  24  25 0
 3-21G
 ****
 26  28  29  30  38  39  40  41  42  43  44  45 0
 3-21G
 ****


