%nproc=1
%NoSave
%Mem=1900MB
#P OB98/GEN NMR

erre ene a

0 1
  C     -197.418     -49.728     115.779
  O     -196.362     -49.458     116.680
  H     -198.318     -49.214     116.125
  H     -197.617     -50.803     115.747
  H     -197.167     -49.369     114.778
  P     -194.912     -50.026     116.297
  C     -194.441     -49.203     113.871
  O     -194.275     -48.975     115.262
  C     -194.042     -47.949     113.088
  O     -194.932     -46.864     113.469
  C     -192.608     -47.488     113.372
  O     -192.035     -46.969     112.168
  C     -192.795     -46.364     114.378
  O     -191.718     -45.440     114.411
  C     -194.112     -45.752     113.886
  N     -194.787     -44.970     114.919
  C     -194.354     -43.664     115.119
  O     -193.494     -43.097     114.443
  N     -194.950     -42.994     116.158
  C     -195.895     -43.497     117.006
  O     -196.375     -42.855     117.932
  C     -196.307     -44.887     116.749
  C     -195.742     -45.547     115.736
  O     -195.244     -51.291     115.373
  O     -194.029     -50.373     117.448
  H     -195.322     -52.100     115.915
  H     -191.579     -45.104     113.502
  H     -194.648     -42.045     116.316
  H     -197.048     -45.322     117.407
  H     -196.015     -46.576     115.528
  H     -193.934     -45.125     113.002
  H     -192.916     -46.779     115.386
  H     -191.975     -48.284     113.769
  H     -194.193     -48.132     112.018
  H     -195.492     -49.435     113.667
  H     -193.822     -50.054     113.566
  P     -191.197     -47.988     111.250
  C     -193.204     -48.560     109.674
  O     -191.920     -47.980     109.814
  O     -191.598     -49.394     111.891
  O     -189.735     -47.688     111.233
  H     -192.525     -49.437     112.186
  H     -193.529     -48.465     108.659
  H     -193.895     -48.057     110.318
  H     -193.158     -49.596     109.939

 6  7  8  9  10  11  12  13  14  15  16  27  31  32  33  34  35 0
 6-311+G(2d,p)
 ****
 36  37 0
 6-311+G(2d,p)
 ****
 1  2  3  4  5  17  18  19  20  21  22  23  24  25 0
 3-21G
 ****
 26  28  29  30  38  39  40  41  42  43  44  45 0
 3-21G
 ****


