%nproc=1
%NoSave
%Mem=1900MB
#P OB98/GEN NMR

erre ene a

0 1
  C       42.144     231.238      46.713
  O       41.412     231.818      45.647
  P       41.260     230.961      44.296
  C       42.054     232.859      42.712
  O       40.985     232.015      43.119
  C       41.535     234.198      42.178
  O       40.611     233.944      41.093
  C       40.816     235.050      43.226
  O       41.138     236.417      42.971
  C       39.348     234.824      42.916
  O       38.541     235.906      43.378
  C       39.387     234.646      41.390
  N       38.220     233.925      40.889
  C       36.976     234.537      41.065
  O       36.891     235.594      41.689
  N       35.855     233.912      40.576
  C       35.956     232.729      40.056
  N       34.818     232.152      39.585
  C       37.235     231.996      39.965
  C       38.317     232.655      40.375
  O       39.846     230.241      44.488
  O       42.367     229.986      44.053
  H       37.631     235.778      43.028
  H       39.840     229.367      44.054
  H       37.261     230.996      39.555
  H       39.300     232.204      40.325
  H       39.434     235.623      40.889
  H       39.002     233.904      43.402
  H       41.095     234.789      44.250
  H       42.385     234.749      41.757
  H       33.954     232.668      39.672
  H       42.612     232.366      41.907
  H       34.802     231.233      39.164
  H       42.734     233.017      43.553
  P       42.189     237.132      43.952
  C       40.488     237.393      45.858
  O       41.298     238.059      44.909
  O       42.847     238.221      42.974
  O       43.234     236.289      44.603
  H       43.562     238.690      43.440
  H       40.047     238.137      46.526
  H       41.086     236.696      46.450
  H       39.680     236.858      45.348
  H       42.164     231.915      47.542
  H       43.145     231.039      46.391
  H       41.676     230.323      47.011

 3  4  5  6  7  8  9  10  11  12  13  21  23  27  28  29  30  32 0
 6-311+G(2d,p)
 ****
 34  35 0
 6-311+G(2d,p)
 ****
 1  2  14  15  16  17  18  19  20  22  24  25  26 0
 3-21G
 ****
 31  33  36  37  38  39  40  41  42  43  44  45  46 0
 3-21G
 ****


