%nproc=1
%NoSave
%Mem=1900MB
#P OB98/GEN NMR

erre ene a

0 1
  C      -45.299    -495.006     512.275
  O      -45.562    -495.367     510.936
  H      -45.133    -493.927     512.325
  H      -44.393    -495.515     512.617
  H      -46.140    -495.267     512.925
  P      -46.218    -496.809     510.676
  C      -48.615    -495.943     510.170
  O      -47.776    -496.676     511.053
  C      -49.924    -496.697     509.930
  O      -50.650    -496.779     511.192
  C      -50.854    -496.029     508.902
  O      -51.519    -497.052     508.149
  C      -51.885    -495.340     509.777
  O      -53.108    -495.109     509.090
  C      -51.994    -496.337     510.924
  N      -56.332    -494.474     512.633
  C      -56.054    -495.189     511.481
  N      -57.070    -495.387     510.616
  N      -54.868    -495.665     511.198
  C      -53.943    -495.410     512.157
  C      -54.093    -494.718     513.333
  C      -55.404    -494.178     513.627
  O      -55.710    -493.523     514.616
  N      -52.898    -494.623     514.002
  C      -52.025    -495.245     513.222
  N      -52.614    -495.736     512.091
  O      -45.615    -497.683     511.875
  O      -45.932    -497.412     509.345
  H      -53.674    -494.542     509.653
  H      -44.821    -498.159     511.568
  H      -57.256    -494.119     512.794
  H      -50.968    -495.344     513.422
  H      -52.599    -497.219     510.661
  H      -51.495    -494.379     510.128
  H      -58.016    -495.082     510.778
  H      -50.340    -495.342     508.220
  H      -56.887    -495.942     509.790
  H      -49.687    -497.724     509.630
  H      -48.100    -495.812     509.215
  H      -48.815    -494.959     510.599
  P      -52.167    -496.646     506.736
  C      -50.093    -495.814     505.399
  O      -51.286    -495.472     506.088
  O      -53.519    -495.903     507.158
  O      -52.436    -497.810     505.839
  H      -54.214    -496.082     506.500
  H      -49.627    -494.924     505.030
  H      -50.327    -496.460     504.579
  H      -49.426    -496.315     506.069

 6  7  8  9  10  11  12  13  14  15  26  29  33  34 0
 6-311+G(2d,p)
 ****
 36  38  39  40  41 0
 6-311+G(2d,p)
 ****
 1  2  3  4  5  16  17  18  19  20  21  22  23  24  25 0
 3-21G
 ****
 27  28  30  31  32  35  37  42  43  44  45  46  47 0
 3-21G
 ****
 48  49 0
 3-21G
 ****


