%nproc=1
%NoSave
%Mem=1900MB
#P OB98/GEN NMR

erre ene a

0 1
  C       67.426     582.422     913.646
  O       68.129     583.462     912.992
  H       68.090     581.559     913.731
  H       66.545     582.132     913.064
  H       67.125     582.743     914.645
  P       67.319     584.820     912.729
  C       68.852     586.268     914.214
  O       68.416     585.982     912.888
  C       70.169     587.052     914.190
  O       71.244     586.149     913.830
  C       70.164     588.205     913.176
  O       70.874     589.320     913.735
  C       70.947     587.648     911.996
  O       71.555     588.669     911.215
  C       71.933     586.709     912.702
  N       74.319     585.759     908.283
  C       74.125     586.902     908.977
  N       73.488     587.062     910.158
  C       73.069     585.875     910.644
  C       73.191     584.637     910.037
  C       73.841     584.608     908.798
  N       74.021     583.446     908.069
  N       72.589     583.664     910.826
  C       72.127     584.310     911.881
  N       72.383     585.659     911.806
  O       66.076     585.005     913.538
  O       67.097     584.771     911.143
  H       72.121     588.234     910.537
  H       67.913     584.492     910.683
  H       74.526     587.807     908.530
  H       71.604     583.853     912.717
  H       72.825     587.234     913.056
  H       70.263     587.077     911.353
  H       69.153     588.509     912.893
  H       70.380     587.414     915.206
  H       69.000     585.330     914.771
  H       74.513     583.506     907.196
  H       73.689     582.574     908.446
  H       68.070     586.846     914.714
  P       70.854     590.706     912.928
  C       69.472     592.044     914.656
  O       70.734     591.914     913.987
  O       69.931     590.777     911.757
  O       72.390     590.840     912.453
  H       72.402     591.235     911.554
  H       69.510     592.874     915.330
  H       69.265     591.149     915.204
  H       68.700     592.206     913.933

 6  7  8  9  10  11  12  13  14  15  25  28  32  33  34  35 0
 6-311+G(2d,p)
 ****
 36  39  40 0
 6-311+G(2d,p)
 ****
 1  2  3  4  5  16  17  18  19  20  21  22  23  24 0
 3-21G
 ****
 26  27  29  30  31  37  38  41  42  43  44  45  46  47 0
 3-21G
 ****
 48 0
 3-21G
 ****


