%nproc=1
%NoSave
%Mem=1900MB
#P OB98/GEN NMR

erre ene a

0 1
  C      161.000     664.138      43.258
  O      160.281     664.781      44.293
  H      162.071     664.137      43.492
  H      160.661     663.103      43.180
  H      160.828     664.648      42.307
  P      160.660     666.305      44.603
  C      158.318     666.268      45.719
  O      159.626     666.831      45.721
  C      157.652     666.505      47.067
  O      158.399     665.790      48.083
  C      157.563     667.988      47.491
  O      156.197     668.353      47.721
  C      158.304     668.045      48.815
  O      157.672     668.885      49.776
  C      158.336     666.588      49.275
  N      160.760     668.125      53.484
  C      159.484     668.295      53.074
  N      158.874     667.767      51.996
  C      159.710     666.965      51.307
  C      161.030     666.685      51.619
  C      161.566     667.320      52.748
  N      162.885     667.192      53.134
  N      161.578     665.833      50.672
  C      160.615     665.642      49.793
  N      159.471     666.328      50.127
  O      160.207     667.076      43.272
  O      162.098     666.553      44.912
  H      158.262     668.919      50.554
  H      160.916     667.667      42.973
  H      158.872     668.948      53.696
  H      160.700     665.069      48.872
  H      157.423     666.313      49.822
  H      159.319     668.422      48.634
  H      158.014     668.663      46.761
  H      156.645     666.057      47.041
  H      158.385     665.194      45.531
  H      163.206     667.769      53.889
  H      163.514     666.676      52.530
  H      157.735     666.722      44.904
  P      155.491     669.260      46.588
  C      153.006     668.477      46.708
  O      153.966     669.480      47.031
  O      155.365     668.245      45.349
  O      156.262     670.495      46.230
  H      155.362     668.735      44.506
  H      152.044     668.774      47.071
  H      153.289     667.552      47.165
  H      152.964     668.352      45.646

 6  7  8  9  10  11  12  13  14  15  25  28  32  33  34  35 0
 6-311+G(2d,p)
 ****
 36  39  40 0
 6-311+G(2d,p)
 ****
 1  2  3  4  5  16  17  18  19  20  21  22  23  24 0
 3-21G
 ****
 26  27  29  30  31  37  38  41  42  43  44  45  46  47  48 0
 3-21G
 ****


