%nproc=1
%NoSave
%Mem=1900MB
#P OB98/GEN NMR

erre ene a

0 1
  C        1.927      65.972      32.117
  O        1.551      65.095      31.076
  H        2.254      65.376      32.973
  H        1.081      66.591      32.427
  H        2.758      66.607      31.798
  P        0.919      65.725      29.741
  C        1.845      67.370      27.967
  O        2.014      66.798      29.254
  C        2.695      68.632      27.835
  O        2.348      69.599      28.847
  C        4.196      68.414      28.005
  O        4.806      67.789      26.888
  C        4.651      69.853      28.188
  O        4.656      70.522      26.914
  C        3.530      70.409      29.100
  N        3.880      70.374      30.519
  C        4.646      71.442      31.003
  O        4.995      72.352      30.252
  N        5.032      71.436      32.321
  C        4.700      70.443      33.085
  N        5.148      70.463      34.371
  C        3.880      69.307      32.622
  C        3.513      69.332      31.342
  O       -0.479      66.244      29.853
  O        1.085      64.575      28.641
  H        4.956      71.435      27.072
  H        0.697      64.912      27.797
  H        3.638      68.500      33.298
  H        2.924      68.524      30.924
  H        3.280      71.440      28.823
  H        5.659      69.938      28.604
  H        4.408      67.861      28.926
  H        2.463      69.087      26.863
  H        5.742      71.235      34.641
  H        0.784      67.597      27.831
  H        5.173      69.619      34.934
  H        2.159      66.661      27.195
  P        6.260      67.137      27.094
  C        7.071      65.032      28.398
  O        6.124      66.082      28.296
  O        7.100      68.335      27.735
  O        6.900      66.579      25.862
  H        7.581      68.835      27.047
  H        6.839      64.423      29.247
  H        8.051      65.446      28.513
  H        7.038      64.434      27.511

 6  7  8  9  10  11  12  13  14  15  16  26  30  31  32  33  35 0
 6-311+G(2d,p)
 ****
 37  38 0
 6-311+G(2d,p)
 ****
 1  2  3  4  5  17  18  19  20  21  22  23  24  25 0
 3-21G
 ****
 27  28  29  34  36  39  40  41  42  43  44  45  46 0
 3-21G
 ****


