%nproc=1
%NoSave
%Mem=1900MB
#P OB98/GEN NMR

erre ene a

0 1
  C      -40.378     -74.423     115.121
  O      -40.964     -75.517     115.806
  P      -41.289     -75.432     117.377
  C      -39.570     -77.346     117.621
  O      -40.015     -76.083     118.100
  C      -38.044     -77.389     117.619
  O      -37.534     -76.465     116.639
  C      -37.399     -76.991     118.942
  O      -37.494     -78.039     119.892
  C      -35.987     -76.648     118.481
  O      -35.215     -77.845     118.301
  C      -36.251     -75.989     117.112
  N      -36.220     -74.530     117.168
  C      -35.009     -73.946     117.548
  O      -34.023     -74.638     117.804
  N      -34.923     -72.577     117.592
  C      -35.964     -71.854     117.311
  N      -35.802     -70.502     117.304
  C      -37.275     -72.429     116.961
  C      -37.330     -73.758     116.906
  O      -42.599     -76.018     117.778
  O      -41.135     -73.884     117.735
  H      -35.138     -78.266     119.179
  H      -41.968     -73.366     117.612
  H      -38.115     -71.785     116.748
  H      -38.251     -74.258     116.638
  H      -35.512     -76.328     116.377
  H      -35.445     -76.002     119.178
  H      -37.881     -76.094     119.346
  H      -37.730     -78.403     117.330
  H      -34.852     -70.159     117.375
  H      -39.933     -77.479     116.597
  H      -36.456     -69.894     116.827
  H      -39.987     -78.138     118.250
  P      -38.415     -77.788     121.181
  C      -36.397     -78.519     122.638
  O      -37.402     -77.547     122.404
  O      -39.050     -79.229     121.465
  O      -39.457     -76.736     120.998
  H      -39.966     -79.266     121.134
  H      -35.665     -78.099     123.332
  H      -35.890     -78.784     121.707
  H      -36.839     -79.410     123.091
  H      -40.243     -74.678     114.091
  H      -39.429     -74.195     115.559
  H      -41.020     -73.570     115.196

 3  4  5  6  7  8  9  10  11  12  13  23  27  28  29  30  32 0
 6-311+G(2d,p)
 ****
 34  35 0
 6-311+G(2d,p)
 ****
 1  2  14  15  16  17  18  19  20  21  22  24  25  26 0
 3-21G
 ****
 31  33  36  37  38  39  40  41  42  43  44  45  46 0
 3-21G
 ****


