%nproc=1
%NoSave
%Mem=1900MB
#P OB98/GEN NMR

erre ene a

0 1
  C     -442.754     -14.928     -37.829
  O     -441.360     -14.808     -37.615
  H     -443.279     -14.399     -37.031
  H     -443.042     -15.982     -37.804
  H     -443.033     -14.488     -38.791
  P     -440.410     -15.317     -38.802
  C     -440.926     -13.036     -39.988
  O     -440.766     -14.442     -40.104
  C     -440.793     -12.376     -41.359
  O     -440.937     -10.946     -41.256
  C     -439.430     -12.557     -42.007
  O     -439.222     -13.869     -42.481
  C     -439.508     -11.513     -43.117
  O     -440.170     -12.027     -44.279
  C     -440.350     -10.393     -42.456
  N     -439.553      -9.211     -42.190
  C     -439.153      -8.489     -43.326
  O     -439.501      -8.860     -44.446
  N     -438.349      -7.393     -43.155
  C     -437.951      -7.061     -41.967
  N     -437.127      -5.984     -41.871
  C     -438.344      -7.797     -40.748
  C     -439.139      -8.852     -40.929
  O     -441.025     -16.754     -39.145
  O     -438.956     -15.338     -38.473
  H     -440.286     -11.268     -44.889
  H     -441.992     -16.747     -39.261
  H     -437.997      -7.471     -39.775
  H     -439.479      -9.450     -40.091
  H     -441.184     -10.106     -43.111
  H     -438.514     -11.190     -43.436
  H     -438.639     -12.253     -41.311
  H     -441.596     -12.762     -42.001
  H     -436.838      -5.543     -42.738
  H     -440.188     -12.619     -39.293
  H     -436.694      -5.683     -41.011
  H     -441.920     -12.846     -39.568
  P     -437.792     -14.336     -43.031
  C     -436.681     -14.180     -40.709
  O     -436.688     -13.699     -42.050
  O     -437.546     -14.081     -44.477
  O     -437.738     -15.886     -42.623
  H     -437.815     -16.061     -41.670
  H     -435.909     -13.686     -40.157
  H     -436.500     -15.235     -40.709
  H     -437.629     -13.981     -40.254

 6  7  8  9  10  11  12  13  14  15  16  26  30  31  32  33  35 0
 6-311+G(2d,p)
 ****
 37  38 0
 6-311+G(2d,p)
 ****
 1  2  3  4  5  17  18  19  20  21  22  23  24  25 0
 3-21G
 ****
 27  28  29  34  36  39  40  41  42  43  44  45  46 0
 3-21G
 ****


