%nproc=1
%NoSave
%Mem=1900MB
#P OB98/GEN NMR

erre ene a

0 1
  C     -894.230    1024.640     121.965
  O     -893.990    1024.150     120.660
  P     -893.400    1025.179     119.559
  C     -895.610    1025.231     118.090
  O     -894.700    1025.923     118.955
  C     -896.770    1026.151     117.671
  O     -897.530    1026.488     118.858
  C     -896.330    1027.487     117.091
  O     -895.900    1027.363     115.735
  C     -897.600    1028.321     117.299
  O     -898.550    1028.026     116.251
  C     -898.100    1027.801     118.641
  N     -897.770    1028.695     119.754
  C     -898.830    1029.407     120.291
  O     -900.000    1029.317     119.910
  N     -898.500    1030.255     121.356
  C     -897.250    1030.504     121.813
  O     -896.990    1031.316     122.708
  C     -896.150    1029.756     121.183
  C     -896.460    1028.897     120.209
  O     -892.950    1024.174     118.418
  O     -892.350    1026.081     120.112
  H     -893.450    1023.342     118.438
  H     -899.370    1028.554     116.487
  H     -899.270    1030.791     121.767
  H     -895.140    1029.905     121.528
  H     -895.670    1028.319     119.717
  H     -899.200    1027.677     118.636
  H     -897.410    1029.401     117.260
  H     -895.520    1027.921     117.683
  H     -897.410    1025.613     116.976
  H     -896.010    1024.360     118.588
  H     -895.050    1024.897     117.200
  P     -895.060    1028.585     115.128
  C     -896.900    1029.172     113.334
  O     -896.160    1029.577     114.466
  O     -894.370    1027.882     113.885
  O     -894.130    1029.213     116.116
  H     -894.940    1027.275     113.388
  H     -897.800    1029.767     113.274
  H     -897.220    1028.125     113.443
  H     -896.290    1029.275     112.439
  H     -894.616    1023.851     122.577
  H     -894.941    1025.438     121.921
  H     -893.314    1025.001     122.384

 3  4  5  6  7  8  9  10  11  12  13  24  28  29  30  31  32 0
 6-311+G(2d,p)
 ****
 33  34 0
 6-311+G(2d,p)
 ****
 1  2  14  15  16  17  18  19  20  21  22  23  25  26  27 0
 3-21G
 ****
 35  36  37  38  39  40  41  42  43  44  45 0
 3-21G
 ****


