%nproc=1
%NoSave
%Mem=1900MB
#P OB98/GEN NMR

erre ene a

0 1
  C      179.253    -311.095     150.513
  O      178.904    -311.987     151.556
  H      178.339    -310.715     150.055
  H      179.840    -311.620     149.751
  H      179.829    -310.254     150.910
  P      180.123    -312.646     152.369
  C      180.001    -314.805     150.908
  O      179.950    -314.233     152.210
  C      179.751    -316.315     150.980
  O      180.828    -316.928     151.761
  C      178.434    -316.708     151.671
  O      177.995    -317.956     151.114
  C      178.886    -316.921     153.105
  O      177.901    -317.593     153.852
  C      180.207    -317.639     152.849
  N      183.589    -320.475     155.447
  C      182.933    -320.696     154.282
  N      182.059    -319.891     153.649
  C      181.898    -318.735     154.321
  C      182.502    -318.363     155.513
  C      183.388    -319.297     156.083
  N      184.044    -319.077     157.272
  N      182.083    -317.101     155.900
  C      181.244    -316.721     154.958
  N      181.094    -317.678     153.991
  O      179.732    -312.371     153.898
  O      181.478    -312.121     152.032
  H      177.016    -317.195     153.696
  H      180.179    -311.564     154.214
  H      183.138    -321.651     153.803
  H      180.710    -315.773     154.933
  H      180.049    -318.678     152.522
  H      179.058    -315.957     153.607
  H      177.647    -315.954     151.551
  H      179.820    -316.738     149.970
  H      180.992    -314.608     150.476
  H      179.234    -314.343     150.275
  H      184.649    -319.806     157.626
  H      183.893    -318.211     157.769
  P      177.286    -317.959     149.668
  C      175.030    -318.770     150.730
  O      176.016    -318.945     149.727
  O      178.329    -318.817     148.793
  O      177.050    -316.624     149.056
  H      178.267    -318.542     147.858
  H      174.267    -319.511     150.614
  H      174.597    -317.796     150.639
  H      175.481    -318.871     151.695

 6  7  8  9  10  11  12  13  14  15  25  28  32  33  34  35 0
 6-311+G(2d,p)
 ****
 36  37  40 0
 6-311+G(2d,p)
 ****
 1  2  3  4  5  16  17  18  19  20  21  22  23  24 0
 3-21G
 ****
 26  27  29  30  31  38  39 41  42  43  44  45  46  47  48 0
 3-21G
 ****


