%nproc=1
%NoSave
%Mem=1900MB
#P OB98/GEN NMR

erre ene a

0 1
  C       59.785     -20.954    -581.621
  O       61.054     -20.346    -581.846
  P       61.386     -19.973    -583.374
  C       62.749     -21.021    -585.321
  O       62.304     -21.148    -583.976
  C       63.179     -22.376    -585.882
  O       64.444     -22.808    -585.283
  C       62.160     -23.510    -585.636
  O       62.214     -24.379    -586.774
  C       62.742     -24.199    -584.415
  O       62.196     -25.494    -584.188
  C       64.228     -24.144    -584.756
  N       66.512     -27.798    -582.023
  C       65.683     -27.849    -583.092
  N       65.117     -26.828    -583.755
  C       65.478     -25.651    -583.222
  C       66.300     -25.432    -582.128
  C       66.834     -26.579    -581.512
  N       67.657     -26.542    -580.406
  N       66.418     -24.082    -581.864
  C       65.619     -23.492    -582.743
  N       65.091     -24.398    -583.628
  O       62.386     -18.726    -583.253
  O       60.175     -19.656    -584.187
  H       62.819     -26.024    -583.648
  H       61.899     -17.881    -583.387
  H       65.443     -28.843    -583.451
  H       65.378     -22.447    -582.768
  H       64.502     -24.854    -585.546
  H       62.523     -23.594    -583.525
  H       61.129     -23.153    -585.504
  H       63.354     -22.265    -586.969
  H       63.593     -20.320    -585.379
  H       67.987     -27.411    -580.035
  H       67.921     -25.662    -580.000
  H       61.933     -20.585    -585.923
  P       60.865     -25.098    -587.259
  C       59.920     -27.482    -587.007
  O       60.988     -26.606    -586.683
  O       61.183     -25.338    -588.806
  O       59.586     -24.361    -587.005
  H       62.060     -25.742    -588.933
  H       60.160     -28.475    -586.631
  H       59.782     -27.531    -588.097
  H       59.001     -27.141    -586.512
  H       59.668     -21.159    -580.577
  H       59.725     -21.869    -582.173
  H       59.010     -20.291    -581.943

 3  4  5  6  7  8  9  10  11  12  22  25  29  30  31  32 0
 6-311+G(2d,p)
 ****
 33  36  37 0
 6-311+G(2d,p)
 ****
 1  2  13  14  15  16  17  18  19  20  21  23  24  26 0
 3-21G
 ****
 27  28  34  35  38  39  40  41  42  43  44  45  46  47  48 0
 3-21G
 ****


