%nproc=1
%NoSave
%Mem=1900MB
#P OB98/GEN NMR

erre ene a

0 1
  C     -783.292     502.341     197.094
  O     -782.284     501.909     196.197
  P     -782.442     500.458     195.523
  C     -780.119     499.660     196.473
  O     -781.525     499.474     196.400
  C     -779.474     498.544     197.303
  O     -779.798     498.741     198.696
  C     -779.964     497.139     196.975
  O     -779.376     496.645     195.776
  C     -779.574     496.390     198.241
  O     -778.173     496.045     198.212
  C     -779.843     497.443     199.328
  N     -781.110     497.241     200.033
  C     -781.021     496.824     201.358
  O     -779.944     496.636     201.937
  N     -782.215     496.618     201.997
  C     -783.450     496.718     201.439
  O     -784.494     496.474     202.052
  C     -783.496     497.115     200.029
  C     -782.330     497.364     199.400
  O     -781.632     500.670     194.165
  O     -783.873     500.041     195.364
  H     -780.953     501.355     194.253
  H     -778.109     495.236     197.667
  H     -782.172     496.334     202.969
  H     -784.456     497.202     199.543
  H     -782.332     497.658     198.350
  H     -779.038     497.439     200.080
  H     -780.139     495.457     198.365
  H     -781.059     497.140     196.864
  H     -778.389     498.619     197.193
  H     -779.900     500.631     196.922
  H     -779.710     499.649     195.452
  P     -779.828     495.179     195.311
  C     -777.428     494.141     195.156
  O     -778.682     494.177     195.804
  O     -779.611     495.281     193.726
  O     -781.219     494.821     195.718
  H     -778.780     495.734     193.485
  H     -776.694     493.691     195.830
  H     -777.091     495.149     194.889
  H     -777.501     493.533     194.248
  H     -783.050     503.318     197.458
  H     -783.354     501.659     197.916
  H     -784.233     502.373     196.585

 3  4  5  6  7  8  9  10  11  12  13  24  28  29  30  31  32 0
 6-311+G(2d,p)
 ****
 33  34 0
 6-311+G(2d,p)
 ****
 1  2  14  15  16  17  18  19  20  21  22  23  25  26  27 0
 3-21G
 ****
 35  36  37  38  39  40  41  42  43  44  45 0
 3-21G
 ****


