%nproc=1
%NoSave
%Mem=1900MB
#P OB98/GEN NMR

erre ene a

0 1
  C       23.219      -5.995     309.269
  O       22.465      -5.977     310.469
  P       21.375      -7.139     310.677
  C       21.943      -7.644     313.168
  O       21.941      -8.110     311.823
  C       23.373      -7.588     313.702
  O       24.147      -6.633     312.947
  C       23.490      -7.149     315.158
  O       23.121      -8.196     316.040
  C       24.965      -6.759     315.213
  O       25.783      -7.934     315.327
  C       25.175      -6.106     313.833
  N       27.351      -1.795     315.544
  C       27.677      -3.097     315.701
  N       27.038      -4.189     315.234
  C       25.951      -3.834     314.527
  C       25.475      -2.554     314.300
  C       26.231      -1.501     314.836
  N       25.885      -0.171     314.679
  N       24.318      -2.585     313.553
  C       24.102      -3.860     313.322
  N       25.066      -4.659     313.880
  O       21.525      -8.014     309.350
  O       19.974      -6.662     310.879
  H       26.676      -7.641     315.591
  H       20.663      -8.387     309.075
  H       28.579      -3.287     316.284
  H       23.269      -4.261     312.757
  H       26.148      -6.350     313.394
  H       25.207      -6.103     316.057
  H       22.866      -6.269     315.344
  H       23.826      -8.581     313.569
  H       21.358      -8.329     313.792
  H       26.395       0.513     315.222
  H       24.984       0.041     314.278
  H       21.473      -6.657     313.204
  P       22.085      -7.833     317.215
  C       20.379      -9.691     316.707
  O       20.665      -8.303     316.626
  O       22.010      -6.243     317.098
  O       22.447      -8.378     318.554
  H       21.865      -5.949     316.181
  H       19.373      -9.860     316.328
  H       20.432     -10.028     317.748
  H       21.089     -10.253     316.098
  H       23.901      -5.171     309.264
  H       22.558      -5.916     308.431
  H       23.767      -6.912     309.206

 3  4  5  6  7  8  9  10  11  12  22  25  29  30  31  32 0
 6-311+G(2d,p)
 ****
 33  36  37 0
 6-311+G(2d,p)
 ****
 1  2  13  14  15  16  17  18  19  20  21  23  24  26 0
 3-21G
 ****
 27  28  34  35  38  39  40  41  42  43  44  45  46  47  48 0
 3-21G
 ****


