%nproc=1
%NoSave
%Mem=1900MB
#P OB98/GEN NMR

erre ene a

0 1
  C     -307.895     146.745     114.523
  O     -306.547     146.345     114.605
  H     -307.927     147.798     114.228
  H     -308.383     146.647     115.495
  H     -308.428     146.155     113.773
  P     -306.197     144.847     115.063
  C     -306.703     143.421     117.138
  O     -306.989     144.633     116.451
  C     -307.713     143.175     118.259
  O     -307.473     144.112     119.345
  C     -309.176     143.342     117.821
  O     -309.951     142.239     118.295
  C     -309.617     144.615     118.525
  O     -311.026     144.684     118.723
  C     -308.767     144.552     119.797
  N     -308.709     145.835     120.483
  C     -308.939     145.807     121.863
  O     -309.169     144.739     122.432
  N     -308.960     146.992     122.553
  C     -308.812     148.110     121.915
  N     -308.871     149.250     122.655
  C     -308.595     148.188     120.456
  C     -308.550     147.022     119.809
  O     -304.740     144.533     115.113
  O     -307.007     143.909     114.050
  H     -311.278     144.014     119.395
  H     -306.583     143.019     114.031
  H     -308.482     149.146     119.971
  H     -308.396     146.979     118.735
  H     -309.158     143.799     120.494
  H     -309.320     145.484     117.921
  H     -309.295     143.420     116.741
  H     -307.535     142.174     118.674
  H     -309.029     149.151     123.652
  H     -305.687     143.481     117.545
  H     -308.794     150.178     122.267
  H     -306.757     142.596     116.422
  P     -310.424     141.176     117.189
  C     -312.085     141.191     115.196
  O     -311.295     141.959     116.091
  O     -311.499     140.283     117.971
  O     -309.309     140.345     116.647
  H     -311.137     139.389     118.123
  H     -312.605     141.845     114.528
  H     -312.793     140.613     115.752
  H     -311.452     140.536     114.634

 6  7  8  9  10  11  12  13  14  15  16  26  30  31  32  33  35 0
 6-311+G(2d,p)
 ****
 37  38 0
 6-311+G(2d,p)
 ****
 1  2  3  4  5  17  18  19  20  21  22  23  24  25 0
 3-21G
 ****
 27  28  29  34  36  39  40  41  42  43  44  45  46 0
 3-21G
 ****


