%nproc=1
%NoSave
%Mem=1900MB
#P OB98/GEN NMR

erre ene a

0 1
  C     -284.509    -440.444     245.337
  O     -283.708    -441.300     244.541
  H     -285.426    -440.979     245.606
  H     -284.769    -439.545     244.776
  H     -283.977    -440.177     246.256
  P     -282.306    -440.711     244.038
  C     -283.258    -438.791     242.569
  O     -282.553    -439.141     243.751
  C     -282.806    -437.420     242.066
  O     -281.420    -437.517     241.617
  C     -283.621    -436.880     240.886
  O     -283.778    -435.465     241.033
  C     -282.741    -437.153     239.682
  O     -283.041    -436.315     238.585
  C     -281.362    -436.936     240.300
  N     -279.266    -436.932     235.715
  C     -280.298    -436.166     236.233
  N     -280.860    -435.268     235.409
  N     -280.738    -436.277     237.465
  C     -280.066    -437.205     238.194
  C     -279.039    -438.034     237.791
  C     -278.567    -437.919     236.424
  O     -277.675    -438.569     235.903
  N     -278.646    -438.864     238.821
  C     -279.433    -438.545     239.838
  N     -280.315    -437.539     239.489
  O     -282.153    -441.327     242.565
  O     -281.131    -441.009     244.904
  H     -282.491    -436.602     237.822
  H     -281.210    -441.452     242.336
  H     -278.982    -436.807     234.763
  H     -279.418    -438.986     240.818
  H     -281.101    -435.879     240.393
  H     -282.861    -438.198     239.365
  H     -280.555    -435.093     234.452
  H     -284.616    -437.346     240.805
  H     -281.620    -434.686     235.775
  H     -282.809    -436.720     242.910
  H     -284.329    -438.760     242.787
  H     -283.075    -439.541     241.791
  P     -285.237    -434.908     241.388
  C     -286.014    -434.053     239.054
  O     -286.166    -435.022     240.071
  O     -284.995    -433.317     241.532
  O     -285.823    -435.473     242.638
  H     -285.047    -433.055     242.459
  H     -286.694    -434.264     238.256
  H     -285.010    -434.079     238.684
  H     -286.222    -433.082     239.452

 6  7  8  9  10  11  12  13  14  15  26  29  33  34 0
 6-311+G(2d,p)
 ****
 36  38  39  40  41 0
 6-311+G(2d,p)
 ****
 1  2  3  4  5  16  17  18  19  20  21  22  23  24  25 0
 3-21G
 ****
 27  28  30  31  32  35  37  42  43  44  45  46  47 0
 3-21G
 ****
 48  49 0
 3-21G
 ****


