%nproc=1
%NoSave
%Mem=1900MB
#P OB98/GEN NMR

erre ene a

0 1
  C       34.570     145.629      31.714
  O       34.148     146.892      32.190
  H       33.697     145.087      31.339
  H       35.027     145.044      32.517
  H       35.282     145.755      30.894
  P       35.209     147.827      32.941
  C       35.512     148.675      35.357
  O       34.874     147.727      34.509
  C       35.443     148.227      36.817
  O       34.082     148.407      37.294
  C       35.832     146.759      37.031
  O       36.549     146.657      38.262
  C       34.486     146.069      37.137
  O       34.581     144.847      37.842
  C       33.623     147.142      37.807
  N       32.202     146.923      37.539
  C       31.496     146.175      38.489
  O       32.064     145.751      39.495
  N       30.180     145.868      38.246
  C       29.630     146.226      37.126
  N       28.336     145.856      36.934
  C       30.346     146.993      36.087
  C       31.613     147.306      36.354
  O       35.343     149.221      32.421
  O       36.586     147.019      32.812
  H       34.806     145.028      38.778
  H       37.059     147.293      32.004
  H       29.844     147.261      35.168
  H       32.222     147.856      35.643
  H       33.780     147.144      38.896
  H       34.103     145.852      36.131
  H       36.436     146.354      36.210
  H       36.079     148.891      37.417
  H       27.893     145.311      37.667
  H       34.993     149.633      35.241
  H       27.817     146.039      36.088
  H       36.554     148.801      35.050
  P       38.112     146.285      38.273
  C       39.617     144.232      38.556
  O       38.275     144.705      38.515
  O       38.953     147.140      39.166
  O       38.558     146.469      36.741
  H       39.497     146.735      36.710
  H       39.618     143.175      38.721
  H       40.142     144.717      39.352
  H       40.100     144.449      37.626

 6  7  8  9  10  11  12  13  14  15  16  26  30  31  32  33  35 0
 6-311+G(2d,p)
 ****
 37  38 0
 6-311+G(2d,p)
 ****
 1  2  3  4  5  17  18  19  20  21  22  23  24  25 0
 3-21G
 ****
 27  28  29  34  36  39  40  41  42  43  44  45  46 0
 3-21G
 ****


