%nproc=1
%NoSave
%Mem=1900MB
#P OB98/GEN NMR

erre ene a

0 1
  C      -36.859      20.254      72.296
  O      -37.642      19.833      71.200
  H      -37.464      20.181      73.205
  H      -36.552      21.295      72.165
  H      -35.978      19.618      72.411
  P      -36.954      19.715      69.757
  C      -38.462      21.596      68.847
  O      -38.021      20.253      68.688
  C      -39.860      21.757      68.259
  O      -40.374      23.078      68.541
  C      -39.913      21.606      66.742
  O      -39.813      20.247      66.367
  C      -41.250      22.266      66.445
  O      -42.340      21.373      66.722
  C      -41.246      23.444      67.447
  N      -40.826      24.708      66.839
  C      -41.841      25.505      66.321
  O      -43.029      25.192      66.354
  N      -41.436      26.666      65.716
  C      -40.142      27.046      65.504
  O      -39.822      27.976      64.770
  C      -39.117      26.203      66.138
  C      -39.499      25.081      66.753
  O      -36.350      18.390      69.434
  O      -35.848      20.875      69.772
  H      -34.972      20.482      69.947
  H      -43.103      21.933      66.964
  H      -42.161      27.230      65.294
  H      -38.081      26.505      66.049
  H      -38.759      24.428      67.202
  H      -42.247      23.588      67.874
  H      -41.341      22.567      65.399
  H      -39.116      22.198      66.278
  H      -40.522      21.027      68.745
  H      -37.766      22.256      68.318
  H      -38.455      21.852      69.911
  P      -38.674      19.747      65.362
  C      -40.588      18.957      63.851
  O      -39.314      18.640      64.396
  O      -37.394      19.337      66.011
  O      -38.442      20.991      64.379
  H      -37.491      21.215      64.365
  H      -40.918      18.154      63.226
  H      -40.515      19.853      63.271
  H      -41.290      19.102      64.646

 6  7  8  9  10  11  12  13  14  15  16  27  31  32  33  34  35 0
 6-311+G(2d,p)
 ****
 36  37 0
 6-311+G(2d,p)
 ****
 1  2  3  4  5  17  18  19  20  21  22  23  24  25 0
 3-21G
 ****
 26  28  29  30  38  39  40  41  42  43  44  45 0
 3-21G
 ****


