%nproc=1
%NoSave
%Mem=1900MB
#P OB98/GEN NMR

erre ene a

0 1
  C     -228.780     426.612     -73.349
  O     -229.688     427.696     -73.523
  P     -229.228     429.139     -73.001
  C     -231.635     430.107     -72.614
  O     -230.412     430.173     -73.319
  C     -232.761     430.813     -73.390
  O     -232.402     432.211     -73.549
  C     -233.000     430.295     -74.804
  O     -234.297     430.721     -75.234
  C     -231.942     431.038     -75.590
  O     -232.225     431.036     -76.986
  C     -231.934     432.423     -74.905
  N     -230.602     433.066     -74.888
  C     -230.087     433.559     -76.086
  O     -230.674     433.489     -77.164
  N     -228.836     434.110     -76.022
  C     -228.083     434.255     -74.899
  O     -226.932     434.678     -74.913
  C     -228.727     433.849     -73.645
  C     -229.930     433.274     -73.696
  O     -228.062     429.551     -74.013
  O     -228.770     429.145     -71.582
  H     -232.926     431.710     -77.130
  H     -227.193     429.468     -73.578
  H     -228.424     434.410     -76.896
  H     -228.185     434.011     -72.720
  H     -230.413     432.950     -72.777
  H     -232.621     433.115     -75.408
  H     -230.973     430.548     -75.454
  H     -232.909     429.212     -74.914
  H     -233.684     430.776     -72.803
  H     -231.519     430.554     -71.625
  H     -231.910     429.058     -72.452
  P     -235.520     429.698     -75.063
  C     -236.736     430.385     -77.219
  O     -236.773     430.366     -75.804
  O     -235.775     429.207     -73.677
  O     -235.124     428.501     -76.054
  H     -235.627     427.700     -75.817
  H     -237.761     430.355     -77.599
  H     -236.185     429.528     -77.617
  H     -236.259     431.310     -77.553
  H     -229.215     425.716     -73.740
  H     -228.574     426.483     -72.307
  H     -227.869     426.823     -73.869

 3  4  5  6  7  8  9  10  11  12  13  23  28  29  30  31  32 0
 6-311+G(2d,p)
 ****
 33  34 0
 6-311+G(2d,p)
 ****
 1  2  14  15  16  17  18  19  20  21  22  24  25  26  27 0
 3-21G
 ****
 35  36  37  38  39  40  41  42  43  44  45 0
 3-21G
 ****


