%nproc=1
%NoSave
%Mem=1900MB
#P OB98/GEN NMR

erre ene a

0 1
  C     -678.955     457.592     469.887
  O     -677.594     457.512     469.511
  H     -679.379     456.585     469.904
  H     -679.521     458.187     469.165
  H     -679.047     458.035     470.882
  P     -676.793     458.880     469.254
  C     -674.386     459.692     469.740
  O     -675.355     458.665     469.923
  C     -673.065     459.291     470.387
  O     -673.187     459.309     471.824
  C     -672.619     457.882     470.028
  O     -672.088     457.840     468.713
  C     -671.630     457.598     471.143
  O     -670.365     458.209     470.878
  C     -672.324     458.274     472.344
  N     -673.081     457.331     473.164
  C     -672.321     456.420     473.912
  O     -671.092     456.451     473.868
  N     -672.989     455.489     474.674
  C     -674.280     455.479     474.703
  N     -674.870     454.527     475.487
  C     -675.119     456.424     473.945
  C     -674.462     457.307     473.199
  O     -677.476     460.145     469.653
  O     -676.471     458.839     467.683
  H     -669.811     458.029     471.662
  H     -677.190     459.252     467.174
  H     -676.196     456.376     474.002
  H     -674.996     458.042     472.608
  H     -671.592     458.768     472.996
  H     -671.474     456.530     471.272
  H     -673.456     457.182     470.133
  H     -672.299     460.031     470.098
  H     -674.262     453.896     475.979
  H     -674.778     460.601     470.206
  H     -675.868     454.475     475.649
  H     -674.237     459.892     468.674
  P     -671.517     456.463     468.114
  C     -670.909     455.710     465.726
  O     -671.708     456.584     466.523
  O     -672.054     455.219     468.738
  O     -669.935     456.630     468.292
  H     -669.658     456.512     469.239
  H     -671.120     455.879     464.691
  H     -671.135     454.694     465.975
  H     -669.873     455.902     465.915

 6  7  8  9  10  11  12  13  14  15  16  26  30  31  32  33  35 0
 6-311+G(2d,p)
 ****
 37  38 0
 6-311+G(2d,p)
 ****
 1  2  3  4  5  17  18  19  20  21  22  23  24  25 0
 3-21G
 ****
 27  28  29  34  36  39  40  41  42  43  44  45  46 0
 3-21G
 ****


