%nproc=1
%NoSave
%Mem=1900MB
#P OB98/GEN NMR

erre ene a

0 1
  C     -175.428     395.233      47.866
  O     -175.591     394.675      46.575
  H     -174.366     395.443      48.027
  H     -175.762     394.534      48.638
  H     -175.988     396.167      47.948
  P     -177.042     394.137      46.160
  C     -177.652     396.402      45.070
  O     -177.972     395.436      46.067
  C     -178.918     396.840      44.340
  O     -179.343     395.814      43.420
  C     -180.098     397.076      45.272
  O     -179.960     398.305      45.958
  C     -181.254     396.997      44.296
  O     -181.412     398.223      43.572
  C     -180.789     395.858      43.360
  N     -181.368     394.565      43.711
  C     -182.519     394.196      43.005
  O     -182.984     394.937      42.142
  N     -183.120     393.002      43.317
  C     -182.614     392.238      44.233
  N     -183.260     391.071      44.492
  C     -181.397     392.584      44.991
  C     -180.832     393.752      44.684
  O     -177.612     393.027      46.989
  O     -176.860     393.709      44.628
  H     -182.054     398.032      42.859
  H     -176.580     392.777      44.564
  H     -181.006     391.914      45.742
  H     -179.932     394.081      45.193
  H     -181.055     396.081      42.319
  H     -182.194     396.788      44.806
  H     -180.192     396.247      45.980
  H     -178.688     397.739      43.757
  H     -184.098     390.879      43.955
  H     -176.957     395.927      44.372
  H     -182.910     390.361      45.118
  H     -177.156     397.270      45.519
  P     -180.750     398.567      47.327
  C     -179.065     397.656      49.052
  O     -180.267     397.408      48.327
  O     -182.227     398.722      47.191
  O     -180.028     399.871      47.917
  H     -180.291     400.685      47.422
  H     -178.848     396.817      49.680
  H     -179.186     398.532      49.655
  H     -178.258     397.805      48.365

 6  7  8  9  10  11  12  13  14  15  16  26  30  31  32  33  35 0
 6-311+G(2d,p)
 ****
 37  38 0
 6-311+G(2d,p)
 ****
 1  2  3  4  5  17  18  19  20  21  22  23  24  25 0
 3-21G
 ****
 27  28  29  34  36  39  40  41  42  43  44  45  46 0
 3-21G
 ****


