%nproc=1
%NoSave
%Mem=1900MB
#P OB98/GEN NMR

erre ene a

0 1
  C      232.424     291.722    -482.364
  O      232.174     292.096    -483.703
  H      231.472     291.470    -481.889
  H      232.884     292.545    -481.812
  H      233.072     290.841    -482.331
  P      233.401     292.623    -484.590
  C      231.801     294.144    -485.937
  O      232.781     293.119    -485.983
  C      230.539     293.729    -486.702
  O      229.858     292.682    -485.955
  C      229.530     294.872    -486.904
  O      228.829     294.613    -488.127
  C      228.615     294.679    -485.710
  O      227.422     295.406    -485.849
  C      228.519     293.153    -485.680
  N      228.013     292.650    -484.413
  C      226.822     291.919    -484.467
  O      226.253     291.741    -485.546
  N      226.289     291.436    -483.302
  C      226.861     291.715    -482.170
  N      226.276     291.216    -481.050
  C      228.087     292.531    -482.061
  C      228.609     292.958    -483.211
  O      234.559     291.692    -484.715
  O      233.829     293.994    -483.876
  H      227.046     295.637    -484.969
  H      234.653     293.857    -483.372
  H      228.512     292.750    -481.094
  H      229.508     293.565    -483.234
  H      227.871     292.785    -486.487
  H      229.096     295.045    -484.797
  H      230.003     295.858    -486.940
  H      230.839     293.291    -487.663
  H      225.428     290.671    -481.168
  H      232.237     295.038    -486.390
  H      226.614     291.384    -480.112
  H      231.538     294.371    -484.897
  P      228.809     295.642    -489.358
  C      226.231     295.529    -489.368
  O      227.420     295.496    -490.148
  O      230.018     295.565    -490.233
  O      228.702     297.091    -488.684
  H      229.156     297.739    -489.254
  H      225.381     295.423    -490.009
  H      226.171     296.462    -488.848
  H      226.247     294.727    -488.660

 6  7  8  9  10  11  12  13  14  15  16  26  30  31  32  33  35 0
 6-311+G(2d,p)
 ****
 37  38 0
 6-311+G(2d,p)
 ****
 1  2  3  4  5  17  18  19  20  21  22  23  24  25 0
 3-21G
 ****
 27  28  29  34  36  39  40  41  42  43  44  45  46 0
 3-21G
 ****


