%nproc=1
%NoSave
%Mem=1900MB
#P OB98/GEN NMR

erre ene a

0 1
  C     -483.164    -775.203     -63.655
  O     -482.227    -776.017     -64.336
  H     -483.847    -774.765     -64.389
  H     -482.642    -774.396     -63.132
  H     -483.744    -775.800     -62.944
  P     -481.241    -776.899     -63.424
  C     -481.861    -779.288     -64.322
  O     -480.930    -778.221     -64.275
  C     -482.213    -779.637     -65.777
  O     -482.980    -778.550     -66.342
  C     -480.987    -779.853     -66.665
  O     -481.289    -780.882     -67.612
  C     -480.842    -778.530     -67.395
  O     -480.126    -778.662     -68.620
  C     -482.316    -778.108     -67.543
  N     -482.469    -776.668     -67.748
  C     -482.775    -776.245     -69.048
  O     -482.893    -777.069     -69.960
  N     -482.902    -774.905     -69.295
  C     -482.676    -774.055     -68.347
  N     -482.789    -772.733     -68.663
  C     -482.307    -774.444     -66.971
  C     -482.231    -775.758     -66.742
  O     -482.230    -777.414     -62.277
  O     -480.040    -776.167     -62.923
  H     -480.255    -777.842     -69.144
  H     -483.088    -777.727     -62.610
  H     -482.118    -773.696     -66.217
  H     -481.976    -776.139     -65.762
  H     -482.782    -778.631     -68.391
  H     -480.304    -777.807     -66.767
  H     -480.091    -780.125     -66.097
  H     -482.858    -780.521     -65.772
  H     -483.026    -772.502     -69.620
  H     -482.777    -779.021     -63.790
  H     -482.586    -771.982     -68.015
  H     -481.415    -780.147     -63.822
  P     -480.385    -782.198     -67.661
  C     -481.775    -783.995     -66.422
  O     -481.326    -783.496     -67.678
  O     -479.252    -782.249     -66.689
  O     -479.816    -782.179     -69.170
  H     -478.881    -782.450     -69.137
  H     -482.390    -784.857     -66.580
  H     -482.342    -783.239     -65.920
  H     -480.930    -784.264     -65.823

 6  7  8  9  10  11  12  13  14  15  16  26  30  31  32  33  35 0
 6-311+G(2d,p)
 ****
 37  38 0
 6-311+G(2d,p)
 ****
 1  2  3  4  5  17  18  19  20  21  22  23  24  25 0
 3-21G
 ****
 27  28  29  34  36  39  40  41  42  43  44  45  46 0
 3-21G
 ****


