%nproc=1
%NoSave
%Mem=1900MB
#P OB98/GEN NMR

erre ene a

0 1
  C      -65.473     -83.169    -312.253
  O      -65.692     -84.089    -311.199
  P      -65.116     -83.815    -309.724
  C      -67.178     -85.125    -308.875
  O      -65.762     -84.960    -308.810
  C      -67.533     -86.616    -308.837
  O      -67.332     -87.190    -310.145
  C      -66.671     -87.441    -307.885
  O      -67.074     -87.240    -306.538
  C      -66.897     -88.843    -308.444
  O      -68.164     -89.365    -307.986
  C      -66.962     -88.577    -309.964
  N      -65.699     -88.878    -310.639
  C      -65.602     -90.140    -311.234
  O      -66.537     -90.938    -311.197
  N      -64.445     -90.459    -311.906
  C      -63.457     -89.604    -311.953
  N      -62.372     -89.948    -312.693
  C      -63.513     -88.288    -311.296
  C      -64.644     -87.989    -310.664
  O      -65.320     -82.422    -309.222
  O      -63.583     -84.256    -309.806
  H      -68.366     -90.136    -308.549
  H      -62.973     -83.527    -310.091
  H      -62.663     -87.614    -311.352
  H      -64.763     -87.037    -310.171
  H      -67.762     -89.167    -310.419
  H      -66.120     -89.554    -308.153
  H      -65.617     -87.169    -307.990
  H      -68.591     -86.707    -308.578
  H      -62.454     -90.785    -313.268
  H      -67.537     -84.700    -309.815
  H      -61.708     -89.257    -313.018
  H      -67.645     -84.596    -308.042
  P      -65.971     -86.670    -305.516
  C      -67.636     -84.965    -304.460
  O      -66.805     -86.097    -304.261
  O      -65.423     -85.362    -306.258
  O      -64.880     -87.634    -305.181
  H      -64.561     -85.551    -306.682
  H      -68.287     -84.865    -303.599
  H      -68.240     -85.097    -305.360
  H      -67.017     -84.066    -304.558
  H      -65.934     -83.534    -313.147
  H      -64.421     -83.056    -312.415
  H      -65.898     -82.222    -311.994

 3  4  5  6  7  8  9  10  11  12  13  23  27  28  29  30  32 0
 6-311+G(2d,p)
 ****
 34  35 0
 6-311+G(2d,p)
 ****
 1  2  14  15  16  17  18  19  20  21  22  24  25  26 0
 3-21G
 ****
 31  33  36  37  38  39  40  41  42  43  44  45  46 0
 3-21G
 ****


