%nproc=1
%NoSave
%Mem=1900MB
#P OB98/GEN NMR

erre ene a

0 1
  C      410.058    -319.411    -396.257
  O      410.895    -319.634    -397.381
  P      412.425    -320.032    -397.108
  C      412.207    -322.261    -398.399
  O      412.494    -321.635    -397.158
  C      413.352    -323.170    -398.830
  O      414.574    -322.384    -398.909
  C      413.621    -324.345    -397.875
  O      413.851    -325.536    -398.638
  C      414.931    -323.965    -397.207
  O      415.645    -325.107    -396.743
  C      415.613    -323.205    -398.345
  N      420.650    -322.832    -398.506
  C      419.799    -323.640    -399.236
  N      420.385    -324.510    -400.089
  N      418.499    -323.604    -399.139
  C      418.049    -322.661    -398.270
  C      418.791    -321.799    -397.499
  C      420.232    -321.892    -397.575
  O      421.040    -321.266    -396.886
  N      417.979    -320.978    -396.754
  C      416.752    -321.348    -397.070
  N      416.746    -322.398    -397.951
  O      412.606    -319.690    -395.554
  O      413.429    -319.315    -397.942
  H      415.845    -325.658    -397.525
  H      413.351    -319.068    -395.441
  H      421.643    -322.916    -398.608
  H      415.850    -320.907    -396.668
  H      415.955    -323.907    -399.120
  H      414.726    -323.314    -396.351
  H      421.380    -324.569    -400.240
  H      412.824    -324.520    -397.146
  H      419.779    -325.100    -400.651
  H      413.146    -323.539    -399.843
  H      412.054    -321.492    -399.164
  H      411.282    -322.841    -398.298
  P      413.176    -326.881    -398.069
  C      411.599    -327.857    -399.903
  O      411.753    -326.992    -398.793
  O      412.811    -326.500    -396.563
  O      414.053    -328.083    -398.163
  H      412.759    -327.300    -396.009
  H      412.477    -328.499    -400.045
  H      411.448    -327.259    -400.802
  H      410.724    -328.487    -399.741
  H      409.074    -319.156    -396.590
  H      410.455    -318.609    -395.670
  H      410.014    -320.300    -395.663

 3  4  5  6  7  8  9  10  11  12  23  26  30  31  33  0
 6-311+G(2d,p)
 ****
 35  36  37  38 0
 6-311+G(2d,p)
 ****
 1  2  13  14  15  16  17  18  19  20  21  22  24  25  27  28  29 0
 3-21G
 ****
 32  34  39  40  41  42  43  44  45  46  47  48  49 0
 3-21G
 ****


