%nproc=1
%NoSave
%Mem=1900MB
#P OB98/GEN NMR

erre ene a

0 1
  C      135.123    -116.657     -75.162
  O      134.424    -116.837     -76.379
  H      136.008    -117.298     -75.166
  H      134.487    -116.939     -74.317
  H      135.440    -115.616     -75.059
  P      133.051    -116.020     -76.538
  C      131.640    -117.857     -75.371
  O      132.094    -116.511     -75.345
  C      130.183    -117.940     -74.925
  O      130.063    -117.651     -73.514
  C      129.248    -116.979     -75.651
  O      128.826    -117.520     -76.892
  C      128.111    -116.855     -74.646
  O      127.220    -117.990     -74.731
  C      128.864    -116.854     -73.307
  N      127.085    -112.300     -72.048
  C      126.439    -113.387     -72.596
  N      125.124    -113.234     -72.879
  N      127.024    -114.527     -72.859
  C      128.350    -114.518     -72.580
  C      129.106    -113.503     -72.038
  C      128.431    -112.269     -71.702
  O      128.931    -111.299     -71.138
  N      130.416    -113.888     -71.886
  C      130.456    -115.114     -72.366
  N      129.227    -115.541     -72.805
  O      132.378    -116.670     -77.840
  O      133.198    -114.543     -76.688
  H      127.711    -118.795     -74.488
  H      131.938    -115.965     -78.351
  H      126.576    -111.460     -71.839
  H      131.341    -115.740     -72.411
  H      128.286    -117.342     -72.514
  H      127.500    -115.969     -74.833
  H      124.703    -112.323     -72.977
  H      129.720    -115.995     -75.786
  H      124.671    -114.008     -73.350
  H      129.853    -118.976     -75.069
  H      132.262    -118.454     -74.693
  H      131.739    -118.249     -76.387
  P      128.348    -116.506     -78.038
  C      125.886    -116.536     -77.213
  O      127.032    -115.750     -77.513
  O      127.793    -117.487     -79.174
  O      129.424    -115.619     -78.576
  H      128.425    -117.533     -79.913
  H      125.094    -115.899     -76.877
  H      126.128    -117.240     -76.444
  H      125.573    -117.061     -78.092

 6  7  8  9  10  11  12  13  14  15  26  29  33  34 0
 6-311+G(2d,p)
 ****
 36  38  39  40  41 0
 6-311+G(2d,p)
 ****
 1  2  3  4  5  16  17  18  19  20  21  22  23  24  25 0
 3-21G
 ****
 27  28  30  31  32  35  37  42  43  44  45  46  47 0
 3-21G
 ****
 48  49 0
 3-21G
 ****


