%nproc=1
%NoSave
%Mem=1900MB
#P OB98/GEN NMR

erre ene a

0 1
  C     -173.949    1333.274    -151.675
  O     -172.543    1333.155    -151.884
  P     -171.810    1334.144    -152.922
  C     -170.434    1335.072    -150.956
  O     -171.209    1335.392    -152.104
  C     -169.513    1336.222    -150.546
  O     -168.487    1336.433    -151.563
  C     -170.217    1337.560    -150.324
  O     -169.547    1338.227    -149.236
  C     -169.966    1338.276    -151.622
  O     -170.161    1339.681    -151.518
  C     -168.533    1337.826    -151.915
  N     -168.150    1338.015    -153.322
  C     -167.653    1339.270    -153.672
  O     -167.648    1340.187    -152.850
  N     -167.184    1339.447    -154.967
  C     -167.381    1338.517    -155.857
  N     -166.914    1338.731    -157.110
  C     -168.077    1337.244    -155.541
  C     -168.404    1337.060    -154.273
  O     -172.620    1334.491    -154.127
  O     -170.491    1333.323    -153.330
  H     -169.987    1340.092    -152.415
  H     -170.287    1333.503    -154.258
  H     -168.287    1336.526    -156.324
  H     -168.903    1336.153    -153.948
  H     -167.814    1338.367    -151.287
  H     -170.650    1337.910    -152.405
  H     -171.292    1337.463    -150.074
  H     -168.986    1335.925    -149.623
  H     -166.457    1339.617    -157.307
  H     -169.841    1334.182    -151.172
  H     -166.970    1338.020    -157.841
  H     -171.113    1334.791    -150.126
  P     -170.428    1338.899    -148.089
  C     -169.892    1337.011    -146.394
  O     -170.878    1337.754    -147.062
  O     -171.805    1339.216    -148.866
  O     -169.886    1340.181    -147.508
  H     -172.240    1339.956    -148.426
  H     -170.355    1336.479    -145.555
  H     -169.083    1337.649    -146.018
  H     -169.468    1336.261    -147.071
  H     -174.266    1332.545    -150.959
  H     -174.462    1333.113    -152.600
  H     -174.173    1334.254    -151.309

 3  4  5  6  7  8  9  10  11  12  13  23  27  28  29  30  32 0
 6-311+G(2d,p)
 ****
 34  35 0
 6-311+G(2d,p)
 ****
 1  2  14  15  16  17  18  19  20  21  22  24  25  26 0
 3-21G
 ****
 31  33  36  37  38  39  40  41  42  43  44  45  46 0
 3-21G
 ****


