%nproc=1
%NoSave
%Mem=1900MB
#P OB98/GEN NMR

erre ene a

0 1
  C      231.746     272.138      52.703
  O      231.921     272.519      51.355
  H      231.296     271.142      52.733
  H      231.069     272.841      53.194
  H      232.703     272.111      53.231
  P      232.909     273.747      51.061
  C      231.126     275.561      51.580
  O      232.375     274.986      51.934
  C      230.586     276.412      52.729
  O      231.351     277.655      52.787
  C      229.100     276.785      52.589
  O      228.499     276.784      53.891
  C      229.159     278.220      52.096
  O      227.970     278.943      52.388
  C      230.391     278.725      52.841
  N      230.135     283.727      53.150
  C      229.660     282.750      54.002
  N      228.953     283.160      55.075
  N      229.859     281.472      53.815
  C      230.598     281.198      52.713
  C      231.120     282.070      51.791
  C      230.880     283.483      51.998
  O      231.256     284.395      51.269
  N      231.757     281.393      50.779
  C      231.600     280.115      51.082
  N      230.902     279.947      52.246
  O      232.526     274.152      49.559
  O      234.363     273.446      51.202
  H      227.898     279.035      53.360
  H      233.131     273.712      48.934
  H      229.941     284.697      53.331
  H      231.951     279.284      50.489
  H      230.183     278.947      53.896
  H      229.320     278.237      51.011
  H      228.785     284.128      55.304
  H      228.536     276.126      51.922
  H      228.633     282.458      55.731
  H      230.764     275.883      53.672
  H      230.411     274.761      51.362
  H      231.254     276.172      50.680
  P      227.634     275.505      54.321
  C      225.446     276.401      53.232
  O      226.404     275.354      53.303
  O      226.930     275.984      55.677
  O      228.444     274.269      54.532
  H      226.842     275.228      56.287
  H      224.695     276.149      52.512
  H      225.931     277.309      52.939
  H      224.990     276.533      54.191

 6  7  8  9  10  11  12  13  14  15  26  29  33  34 0
 6-311+G(2d,p)
 ****
 36  38  39  40  41 0
 6-311+G(2d,p)
 ****
 1  2  3  4  5  16  17  18  19  20  21  22  23  24  25 0
 3-21G
 ****
 27  28  30  31  32  35  37  42  43  44  45  46  47 0
 3-21G
 ****
 48  49 0
 3-21G
 ****


