%nproc=1
%NoSave
%Mem=1900MB
#P OB98/GEN NMR

erre ene a

0 1
  C      -53.543     277.403      65.935
  O      -53.290     277.863      67.264
  P      -53.841     279.305      67.699
  C      -56.055     280.555      67.272
  O      -55.437     279.300      67.543
  C      -57.568     280.469      67.474
  O      -58.164     279.467      66.624
  C      -57.965     280.084      68.890
  O      -57.786     281.173      69.780
  C      -59.407     279.643      68.687
  O      -60.294     280.771      68.659
  C      -59.350     278.982      67.290
  N      -59.377     277.527      67.344
  C      -60.644     276.934      67.342
  O      -61.658     277.636      67.340
  N      -60.730     275.565      67.359
  C      -59.646     274.850      67.383
  N      -59.790     273.500      67.398
  C      -58.291     275.436      67.400
  C      -58.231     276.766      67.387
  O      -53.145     280.473      67.085
  O      -53.648     279.291      69.293
  H      -59.928     281.387      67.997
  H      -53.492     280.206      69.598
  H      -57.417     274.798      67.415
  H      -57.275     277.279      67.399
  H      -60.202     279.310      66.681
  H      -59.749     278.985      69.491
  H      -57.362     279.229      69.224
  H      -58.003     281.448      67.216
  H      -60.731     273.123      67.400
  H      -55.832     280.857      66.246
  H      -59.010     272.859      67.368
  H      -55.612     281.314      67.928
  P      -56.361     281.318      70.499
  C      -54.529     283.140      70.260
  O      -55.464     282.299      69.607
  O      -55.689     279.882      70.259
  O      -56.423     281.650      71.955
  H      -55.132     279.653      71.023
  H      -53.805     283.491      69.522
  H      -53.994     282.605      71.050
  H      -55.044     284.002      70.684
  H      -53.113     276.432      65.806
  H      -53.107     278.083      65.233
  H      -54.599     277.350      65.771

 3  4  5  6  7  8  9  10  11  12  13  23  27  28  29  30  32 0
 6-311+G(2d,p)
 ****
 34  35 0
 6-311+G(2d,p)
 ****
 1  2  14  15  16  17  18  19  20  21  22  24  25  26 0
 3-21G
 ****
 31  33  36  37  38  39  40  41  42  43  44  45  46 0
 3-21G
 ****


