%nproc=1
%NoSave
%Mem=1900MB
#P OB98/GEN NMR

erre ene a

0 1
  C     -104.992     -31.559    -145.582
  O     -104.624     -32.923    -145.505
  H     -104.980     -31.120    -144.582
  H     -104.262     -31.033    -146.204
  H     -105.981     -31.447    -146.030
  P     -105.707     -33.940    -144.898
  C     -107.993     -34.644    -145.909
  O     -106.605     -34.437    -146.134
  C     -108.392     -36.062    -146.313
  O     -108.262     -36.187    -147.759
  C     -107.542     -37.169    -145.668
  O     -108.399     -38.271    -145.344
  C     -106.606     -37.586    -146.793
  O     -106.135     -38.921    -146.650
  C     -107.492     -37.375    -148.014
  N     -104.905     -39.995    -151.523
  C     -105.824     -40.378    -150.609
  N     -106.512     -39.601    -149.742
  C     -106.218     -38.302    -149.936
  C     -105.309     -37.759    -150.826
  C     -104.614     -38.678    -151.644
  N     -103.629     -38.307    -152.529
  N     -105.246     -36.387    -150.683
  C     -106.082     -36.108    -149.701
  N     -106.688     -37.232    -149.214
  O     -106.688     -32.958    -144.092
  O     -105.160     -35.019    -144.026
  H     -106.903     -39.522    -146.574
  H     -106.349     -32.829    -143.188
  H     -106.027     -41.444    -150.559
  H     -106.257     -35.128    -149.287
  H     -108.190     -38.208    -148.179
  H     -105.739     -36.914    -146.813
  H     -106.998     -36.846    -144.774
  H     -109.455     -36.205    -146.073
  H     -108.563     -33.928    -146.510
  H     -103.115     -39.043    -152.989
  H     -103.328     -37.343    -152.548
  H     -108.217     -34.470    -144.851
  P     -109.222     -38.185    -143.969
  C     -110.293     -36.033    -142.975
  O     -110.239     -36.950    -144.060
  O     -108.124     -37.686    -142.917
  O     -109.831     -39.483    -143.551
  H     -108.302     -38.061    -142.036
  H     -111.015     -35.272    -143.187
  H     -109.331     -35.585    -142.839
  H     -110.574     -36.552    -142.083

 6  7  8  9  10  11  12  13  14  15  25  28  32  33  34  35 0
 6-311+G(2d,p)
 ****
 36  39  40 0
 6-311+G(2d,p)
 ****
 1  2  3  4  5  16  17  18  19  20  21  22  23  24 0
 3-21G
 ****
 26  27  29  30  31  37  38  41  42  43  44  45  46  47 0
 3-21G
 ****
 48 0
 3-21G
 ****


