%nproc=1
%NoSave
%Mem=1900MB
#P OB98/GEN NMR

erre ene a

0 1
  C      -84.694     107.211      -2.220
  O      -83.319     107.374      -2.503
  H      -85.242     108.058      -2.642
  H      -84.862     107.187      -1.139
  H      -85.064     106.289      -2.676
  P      -82.329     106.256      -1.917
  C      -82.211     104.306      -3.602
  O      -81.681     105.570      -3.221
  C      -81.461     103.759      -4.818
  O      -81.763     104.602      -5.963
  C      -79.936     103.745      -4.645
  O      -79.404     102.593      -5.304
  C      -79.493     104.995      -5.385
  O      -78.133     104.924      -5.801
  C      -80.513     105.044      -6.522
  N      -78.724     108.209     -10.090
  C      -78.545     106.886      -9.882
  N      -79.084     106.112      -8.915
  C      -79.926     106.832      -8.145
  C      -80.206     108.183      -8.234
  C      -79.553     108.890      -9.262
  N      -79.698     110.243      -9.458
  N      -81.080     108.561      -7.232
  C      -81.331     107.453      -6.558
  N      -80.636     106.387      -7.062
  O      -82.932     105.308      -0.935
  O      -81.119     107.144      -1.358
  H      -78.006     104.091      -6.304
  H      -80.846     107.824      -2.004
  H      -77.880     106.382     -10.579
  H      -81.987     107.376      -5.696
  H      -80.248     104.380      -7.354
  H      -79.599     105.870      -4.730
  H      -79.625     103.752      -3.601
  H      -81.845     102.758      -5.050
  H      -83.276     104.401      -3.840
  H      -79.193     110.670     -10.222
  H      -80.313     110.770      -8.857
  H      -82.104     103.626      -2.751
  P      -79.269     101.220      -4.487
  C      -81.466      99.875      -4.585
  O      -80.201     100.112      -5.186
  O      -79.423     101.330      -3.006
  O      -77.794     100.719      -4.873
  H      -77.357     100.370      -4.073
  H      -81.988      99.122      -5.138
  H      -82.037     100.780      -4.587
  H      -81.326      99.544      -3.577

 6  7  8  9  10  11  12  13  14  15  25  28  32  33  34  35 0
 6-311+G(2d,p)
 ****
 36  39  40 0
 6-311+G(2d,p)
 ****
 1  2  3  4  5  16  17  18  19  20  21  22  23  24 0
 3-21G
 ****
 26  27  29  30  31  37  38  41  42  43  44  45  46  47 0
 3-21G
 ****
 48 0
 3-21G
 ****


