%nproc=1
%NoSave
%Mem=1900MB
#P OB98/GEN NMR

erre ene a

0 1
  C       34.021     470.545    -137.845
  O       34.665     469.341    -137.463
  P       34.430     468.054    -138.389
  C       36.816     467.217    -139.021
  O       35.680     467.999    -139.394
  C       37.982     467.490    -139.966
  O       38.313     468.889    -139.950
  C       39.262     466.757    -139.591
  O       39.199     465.400    -139.973
  C       40.304     467.569    -140.357
  O       40.445     467.086    -141.704
  C       39.704     468.997    -140.344
  N       40.426     469.900    -139.459
  C       41.552     470.521    -140.020
  O       41.879     470.273    -141.189
  N       42.294     471.371    -139.236
  C       41.943     471.575    -138.008
  N       42.715     472.431    -137.276
  C       40.785     470.923    -137.372
  C       40.080     470.101    -138.143
  O       33.216     468.494    -139.329
  O       34.145     466.790    -137.642
  H       41.115     467.663    -142.118
  H       32.714     467.715    -139.641
  H       40.539     471.126    -136.334
  H       39.214     469.578    -137.768
  H       39.710     469.430    -141.354
  H       41.294     467.509    -139.898
  H       39.456     466.845    -138.511
  H       37.667     467.219    -140.990
  H       43.514     472.856    -137.739
  H       36.553     466.160    -139.078
  H       42.515     472.676    -136.313
  H       37.089     467.456    -137.992
  P       39.364     464.294    -138.832
  C       37.509     462.550    -139.138
  O       37.869     463.775    -138.542
  O       39.664     465.190    -137.537
  O       40.400     463.243    -139.046
  H       39.890     464.615    -136.778
  H       36.536     462.241    -138.742
  H       38.245     461.778    -138.922
  H       37.414     462.677    -140.225
  H       34.263     471.317    -137.144
  H       32.962     470.394    -137.858
  H       34.353     470.833    -138.821

 3  4  5  6  7  8  9  10  11  12  13  21  23  27  28  29  30  32 0
 6-311+G(2d,p)
 ****
 34  35 0
 6-311+G(2d,p)
 ****
 1  2  14  15  16  17  18  19  20  22  24  25  26 0
 3-21G
 ****
 31  33  36  37  38  39  40  41  42  43  44  45  46 0
 3-21G
 ****


