%nproc=1
%NoSave
%Mem=1900MB
#P OB98/GEN NMR

erre ene a

0 1
  C     -342.121     225.688    -772.717
  O     -341.233     226.636    -772.124
  P     -341.549     228.195    -772.324
  C     -341.597     228.802    -769.744
  O     -341.070     229.014    -771.039
  C     -340.494     229.077    -768.699
  O     -339.546     227.986    -768.675
  C     -339.708     230.364    -768.974
  O     -340.339     231.500    -768.427
  C     -338.363     230.038    -768.345
  O     -338.437     230.186    -766.915
  C     -338.201     228.541    -768.722
  N     -337.606     228.228    -770.044
  C     -336.245     228.470    -770.272
  O     -335.488     228.951    -769.441
  N     -335.784     228.123    -771.516
  C     -336.452     227.429    -772.471
  O     -335.969     227.094    -773.544
  C     -337.829     227.056    -772.117
  C     -338.344     227.474    -770.958
  O     -343.148     228.275    -772.249
  O     -341.015     228.781    -773.601
  H     -338.729     231.097    -766.735
  H     -343.516     228.568    -773.112
  H     -334.828     228.360    -771.716
  H     -338.396     226.455    -772.830
  H     -339.367     227.208    -770.689
  H     -337.597     228.014    -767.975
  H     -337.596     230.724    -768.685
  H     -339.555     230.485    -770.055
  H     -340.965     229.139    -767.709
  H     -341.971     227.775    -769.638
  H     -342.447     229.468    -769.582
  P     -340.009     232.956    -769.001
  C     -342.396     233.513    -769.754
  O     -341.360     233.806    -768.837
  O     -339.377     232.997    -770.356
  O     -339.054     233.598    -767.879
  H     -338.102     233.486    -768.122
  H     -343.308     234.038    -769.441
  H     -342.602     232.435    -769.781
  H     -342.121     233.855    -770.755
  H     -341.782     224.697    -772.499
  H     -342.141     225.833    -773.777
  H     -343.105     225.824    -772.320

 3  4  5  6  7  8  9  10  11  12  13  23  28  29  30  31  32 0
 6-311+G(2d,p)
 ****
 33  34 0
 6-311+G(2d,p)
 ****
 1  2  14  15  16  17  18  19  20  21  22  24  25  26  27 0
 3-21G
 ****
 35  36  37  38  39  40  41  42  43  44  45 0
 3-21G
 ****


