%nproc=1
%NoSave
%Mem=1900MB
#P OB98/GEN NMR

erre ene a

0 1
  C      -60.005     -33.122    -115.939
  O      -59.455     -34.205    -115.194
  P      -58.268     -33.874    -114.170
  C      -59.568     -34.550    -111.995
  O      -58.478     -34.783    -112.866
  C      -60.057     -35.865    -111.359
  O      -60.729     -36.646    -112.381
  C      -58.960     -36.772    -110.814
  O      -59.547     -37.706    -109.905
  C      -58.511     -37.499    -112.062
  O      -57.786     -38.685    -111.749
  C      -59.841     -37.706    -112.821
  N      -59.695     -37.668    -114.293
  C      -60.823     -37.901    -115.076
  O      -61.939     -38.140    -114.619
  N      -60.627     -37.892    -116.430
  C      -59.452     -37.637    -117.068
  O      -59.312     -37.728    -118.280
  C      -58.328     -37.261    -116.200
  C      -58.494     -37.303    -114.877
  O      -58.603     -32.391    -113.675
  O      -56.909     -33.970    -114.776
  H      -57.392     -39.004    -112.594
  H      -57.997     -31.752    -114.091
  H      -61.421     -38.126    -117.008
  H      -57.394     -36.985    -116.673
  H      -57.666     -37.045    -114.221
  H      -60.295     -38.671    -112.565
  H      -57.844     -36.855    -112.644
  H      -58.135     -36.246    -110.327
  H      -60.793     -35.636    -110.581
  H      -60.382     -34.066    -112.539
  H      -59.264     -33.856    -111.203
  P      -58.811     -37.956    -108.503
  C      -60.787     -37.295    -106.999
  O      -59.959     -38.348    -107.454
  O      -57.866     -36.891    -108.059
  O      -58.062     -39.355    -108.737
  H      -57.353     -39.462    -108.077
  H      -61.771     -37.702    -106.753
  H      -60.905     -36.519    -107.762
  H      -60.349     -36.855    -106.100
  H      -60.782     -33.487    -116.577
  H      -59.237     -32.672    -116.533
  H      -60.408     -32.394    -115.266

 3  4  5  6  7  8  9  10  11  12  13  23  28  29  30  31  32 0
 6-311+G(2d,p)
 ****
 33  34 0
 6-311+G(2d,p)
 ****
 1  2  14  15  16  17  18  19  20  21  22  24  25  26  27 0
 3-21G
 ****
 35  36  37  38  39  40  41  42  43  44  45 0
 3-21G
 ****


