%nproc=1
%NoSave
%Mem=1900MB
#P OB98/GEN NMR

erre ene a

0 1
  C     -189.789     313.971     -82.376
  O     -188.611     313.371     -82.890
  P     -187.540     314.218     -83.737
  C     -186.670     314.876     -81.392
  O     -186.951     315.302     -82.712
  C     -185.411     315.566     -80.867
  O     -185.095     315.026     -79.557
  C     -184.172     315.386     -81.753
  O     -183.410     316.594     -81.672
  C     -183.437     314.245     -81.079
  O     -182.056     314.213     -81.406
  C     -183.739     314.539     -79.606
  N     -183.571     313.365     -78.755
  C     -182.292     313.094     -78.268
  O     -181.336     313.808     -78.569
  N     -182.120     312.009     -77.444
  C     -183.116     311.217     -77.199
  N     -182.909     310.193     -76.330
  C     -184.458     311.409     -77.781
  C     -184.617     312.501     -78.520
  O     -188.058     314.783     -85.014
  O     -186.303     313.224     -83.914
  H     -181.678     315.094     -81.225
  H     -186.403     312.617     -84.689
  H     -185.252     310.705     -77.568
  H     -185.572     312.736     -78.967
  H     -183.099     315.353     -79.243
  H     -183.878     313.291     -81.389
  H     -184.425     315.189     -82.800
  H     -185.632     316.635     -80.733
  H     -182.031     310.197     -75.820
  H     -186.497     313.795     -81.406
  H     -183.684     309.750     -75.848
  H     -187.530     315.080     -80.745
  P     -182.429     316.960     -82.891
  C     -184.355     318.398     -83.864
  O     -183.325     317.467     -84.117
  O     -181.978     315.501     -83.389
  O     -181.225     317.775     -82.551
  H     -181.109     315.570     -83.829
  H     -184.854     318.633     -84.808
  H     -183.944     319.322     -83.449
  H     -185.093     317.977     -83.175
  H     -190.361     313.238     -81.847
  H     -190.371     314.363     -83.184
  H     -189.523     314.765     -81.710

 3  4  5  6  7  8  9  10  11  12  13  23  27  28  29  30  32 0
 6-311+G(2d,p)
 ****
 34  35 0
 6-311+G(2d,p)
 ****
 1  2  14  15  16  17  18  19  20  21  22  24  25  26 0
 3-21G
 ****
 31  33  36  37  38  39  40  41  42  43  44  45  46 0
 3-21G
 ****


