%nproc=1
%NoSave
%Mem=1900MB
#P OB98/GEN NMR

erre ene a

0 1
  C       90.758      35.214    -251.359
  O       91.971      34.988    -250.670
  H       90.647      36.290    -251.527
  H       89.904      34.861    -250.775
  H       90.777      34.709    -252.329
  P       92.240      33.518    -250.079
  C       90.885      33.926    -247.918
  O       92.173      33.680    -248.479
  C       90.942      33.896    -246.387
  O       91.120      32.541    -245.924
  C       92.110      34.673    -245.801
  O       92.006      36.073    -245.951
  C       92.236      34.073    -244.408
  O       91.383      34.685    -243.448
  C       91.789      32.610    -244.649
  N       92.905      31.677    -244.569
  C       93.384      31.414    -243.290
  O       92.931      31.939    -242.274
  N       94.442      30.551    -243.216
  C       95.083      29.981    -244.278
  O       96.056      29.247    -244.145
  C       94.549      30.318    -245.606
  C       93.499      31.139    -245.691
  O       93.484      32.838    -250.566
  O       90.895      32.720    -250.417
  H       90.466      34.442    -243.684
  H       91.033      31.746    -250.346
  H       94.798      30.340    -242.297
  H       95.037      29.886    -246.470
  H       93.087      31.402    -246.661
  H       91.049      32.313    -243.893
  H       93.257      34.156    -244.028
  H       93.018      34.380    -246.344
  H       89.985      34.265    -245.999
  H       90.214      33.137    -248.268
  H       90.509      34.894    -248.267
  P       93.131      36.966    -246.652
  C       94.760      36.364    -244.717
  O       94.202      37.392    -245.529
  O       92.661      38.002    -247.622
  O       93.942      35.853    -247.490
  H       94.253      36.275    -248.313
  H       95.450      36.794    -244.022
  H       95.272      35.658    -245.337
  H       93.977      35.868    -244.182

 6  7  8  9  10  11  12  13  14  15  16  26  31  32  33  34  35 0
 6-311+G(2d,p)
 ****
 36  37 0
 6-311+G(2d,p)
 ****
 1  2  3  4  5  17  18  19  20  21  22  23  24  25 0
 3-21G
 ****
 27  28  29  30  38  39  40  41  42  43  44  45 0
 3-21G
 ****


