%nproc=1
%NoSave
%Mem=1900MB
#P OB98/GEN NMR

erre ene a

0 1
  C     -137.482     770.292     242.137
  O     -138.386     769.329     241.614
  P     -137.767     767.951     241.071
  C     -139.952     766.565     241.285
  O     -139.000     767.153     240.413
  C     -141.365     766.917     240.839
  O     -141.793     768.158     241.447
  C     -141.532     767.125     239.341
  O     -141.669     765.905     238.643
  C     -142.830     767.917     239.292
  O     -143.944     767.028     239.451
  C     -142.698     768.822     240.527
  N     -143.902     773.774     240.101
  C     -144.658     772.687     240.358
  N     -144.261     771.392     240.440
  C     -142.944     771.278     240.190
  C     -142.059     772.293     239.885
  C     -142.579     773.602     239.848
  N     -141.805     774.714     239.617
  N     -140.788     771.790     239.693
  C     -140.907     770.502     239.896
  N     -142.183     770.136     240.209
  O     -137.475     767.141     242.418
  O     -136.549     768.093     240.229
  H     -144.757     767.571     239.401
  H     -136.792     766.459     242.258
  H     -145.714     772.868     240.521
  H     -140.085     769.784     239.836
  H     -143.654     768.956     241.046
  H     -142.970     768.443     238.354
  H     -140.716     767.735     238.938
  H     -142.043     766.129     241.195
  H     -139.796     766.945     242.301
  H     -142.214     775.619     239.792
  H     -140.793     774.606     239.634
  H     -139.820     765.479     241.289
  P     -140.497     765.523     237.616
  C     -140.722     762.938     237.836
  O     -140.903     764.083     237.027
  O     -139.258     765.203     238.575
  O     -140.194     766.588     236.611
  H     -138.419     765.351     238.098
  H     -141.321     762.121     237.426
  H     -141.046     763.123     238.858
  H     -139.669     762.645     237.832
  H     -138.027     771.154     242.460
  H     -136.784     770.575     241.377
  H     -136.954     769.872     242.968

 3  4  5  6  7  8  9  10  11  12  22  25  29  30  31  32 0
 6-311+G(2d,p)
 ****
 33  36  37 0
 6-311+G(2d,p)
 ****
 1  2  13  14  15  16  17  18  19  20  21  23  24  26 0
 3-21G
 ****
 27  28  34  35  38  39  40  41  42  43  44  45  46  47  48 0
 3-21G
 ****


