%nproc=1
%NoSave
%Mem=1900MB
#P OB98/GEN NMR

erre ene a

0 1
  C     1106.817     693.889    -315.578
  O     1107.936     693.294    -314.953
  P     1109.329     693.279    -315.787
  C     1110.583     693.336    -313.521
  O     1110.439     692.717    -314.790
  C     1111.770     692.718    -312.753
  O     1111.378     691.443    -312.209
  C     1113.033     692.468    -313.607
  O     1114.169     692.668    -312.755
  C     1112.911     691.007    -313.991
  O     1114.158     690.440    -314.372
  C     1112.295     690.444    -312.726
  N     1112.241     685.456    -311.908
  C     1113.189     686.374    -311.545
  N     1114.229     685.939    -310.842
  N     1113.114     687.646    -311.874
  C     1111.990     687.953    -312.581
  C     1111.010     687.098    -313.008
  C     1111.077     685.718    -312.619
  O     1110.228     684.854    -312.836
  N     1110.056     687.783    -313.790
  C     1110.465     689.036    -313.738
  N     1111.596     689.198    -312.984
  O     1109.673     694.826    -315.932
  O     1109.271     692.538    -317.101
  H     1114.755     690.497    -313.604
  H     1109.328     695.180    -316.787
  H     1112.330     684.492    -311.618
  H     1109.955     689.863    -314.223
  H     1113.049     690.241    -311.945
  H     1112.216     690.913    -314.832
  H     1114.348     684.988    -310.531
  H     1113.093     693.143    -314.464
  H     1114.956     686.612    -310.556
  H     1112.009     693.385    -311.907
  H     1109.684     693.169    -312.916
  H     1110.716     694.436    -313.632
  P     1115.408     693.496    -313.310
  C     1116.070     694.136    -310.899
  O     1116.489     693.620    -312.145
  O     1114.837     694.970    -313.456
  O     1115.938     693.017    -314.635
  H     1115.266     695.421    -314.203
  H     1116.753     693.794    -310.109
  H     1115.074     693.818    -310.641
  H     1116.086     695.231    -310.950
  H     1105.971     693.832    -314.925
  H     1106.600     693.371    -316.489
  H     1107.032     694.915    -315.794

 3  4  5  6  7  8  9  10  11  12  23  26  30  31 0
 6-311+G(2d,p)
 ****
 33  35  36  37  38 0
 6-311+G(2d,p)
 ****
 1  2  13  14  15  16  17  18  19  20  21  22  24  25 0
 3-21G
 ****
 27  28  29  32  34  39  40  41  42  43  44  45  46  47  48  49 0
 3-21G
 ****


