%nproc=1
%NoSave
%Mem=1900MB
#P OB98/GEN NMR

erre ene a

0 1
  C     -196.947    -275.747    -218.564
  O     -198.324    -275.591    -218.873
  P     -199.231    -276.916    -218.937
  C     -198.804    -277.067    -221.536
  O     -198.766    -277.696    -220.262
  C     -198.115    -277.949    -222.581
  O     -196.716    -278.090    -222.250
  C     -198.660    -279.368    -222.671
  O     -199.892    -279.420    -223.374
  C     -197.500    -280.089    -223.356
  O     -197.540    -279.850    -224.780
  C     -196.278    -279.388    -222.731
  N     -195.654    -280.157    -221.664
  C     -194.799    -281.192    -222.059
  O     -194.572    -281.456    -223.240
  N     -194.239    -281.929    -221.047
  C     -194.485    -281.775    -219.714
  O     -193.983    -282.493    -218.851
  C     -195.410    -280.696    -219.351
  C     -195.943    -279.949    -220.329
  O     -200.651    -276.285    -219.317
  O     -199.205    -277.714    -217.671
  H     -200.554    -275.441    -219.802
  H     -196.713    -280.216    -225.141
  H     -193.604    -282.665    -221.307
  H     -195.639    -280.552    -218.301
  H     -196.637    -279.155    -220.083
  H     -195.520    -279.184    -223.504
  H     -197.524    -281.169    -223.203
  H     -198.800    -279.781    -221.657
  H     -198.188    -277.448    -223.557
  H     -198.291    -276.104    -221.479
  H     -199.850    -276.888    -221.810
  P     -200.976    -280.493    -222.851
  C     -200.640    -282.049    -224.926
  O     -200.580    -281.893    -223.524
  O     -202.282    -280.021    -223.649
  O     -201.126    -280.511    -221.366
  H     -202.096    -279.786    -224.582
  H     -200.015    -282.906    -225.206
  H     -200.275    -281.154    -225.439
  H     -201.671    -282.249    -225.233
  H     -196.472    -274.788    -218.556
  H     -196.484    -276.368    -219.302
  H     -196.847    -276.202    -217.601

 3  4  5  6  7  8  9  10  11  12  13  24  28  29  30  31  32 0
 6-311+G(2d,p)
 ****
 33  34 0
 6-311+G(2d,p)
 ****
 1  2  14  15  16  17  18  19  20  21  22  23  25  26  27 0
 3-21G
 ****
 35  36  37  38  39  40  41  42  43  44  45 0
 3-21G
 ****


