%nproc=1
%NoSave
%Mem=1900MB
#P OB98/GEN NMR

erre ene a

0 1
  C     -782.397    -116.581     392.054
  O     -781.881    -117.822     391.557
  P     -782.838    -119.054     391.171
  C     -782.837    -119.628     393.687
  O     -782.785    -120.139     392.357
  C     -783.569    -120.587     394.632
  O     -784.958    -120.696     394.276
  C     -783.016    -122.008     394.637
  O     -781.840    -122.089     395.421
  C     -784.209    -122.786     395.191
  O     -784.258    -122.680     396.624
  C     -785.392    -122.042     394.560
  N     -788.547    -125.628     392.734
  C     -788.295    -125.203     393.999
  N     -787.440    -124.245     394.400
  C     -786.818    -123.683     393.344
  C     -786.968    -124.019     392.011
  C     -787.885    -125.047     391.711
  N     -788.128    -125.484     390.434
  N     -786.147    -123.241     391.213
  C     -785.523    -122.444     392.059
  N     -785.894    -122.675     393.356
  O     -782.587    -119.617     389.811
  O     -784.323    -118.464     391.278
  H     -784.402    -121.742     396.845
  H     -784.915    -118.946     390.667
  H     -788.861    -125.695     394.782
  H     -784.801    -121.689     391.779
  H     -786.230    -121.950     395.261
  H     -784.174    -123.851     394.943
  H     -782.816    -122.335     393.612
  H     -783.521    -120.154     395.641
  H     -783.356    -118.663     393.662
  H     -788.773    -126.249     390.307
  H     -787.601    -125.088     389.666
  H     -781.810    -119.469     394.036
  P     -780.406    -121.886     394.734
  C     -779.976    -124.381     395.158
  O     -779.459    -123.068     395.265
  O     -779.827    -120.516     394.833
  O     -780.657    -122.300     393.205
  H     -780.041    -121.801     392.633
  H     -780.665    -124.566     395.990
  H     -779.146    -125.088     395.224
  H     -780.493    -124.522     394.206
  H     -781.587    -115.908     392.244
  H     -782.935    -116.757     392.962
  H     -783.054    -116.151     391.327

 3  4  5  6  7  8  9  10  11  12  22  25  29  30  31  32 0
 6-311+G(2d,p)
 ****
 33  36  37 0
 6-311+G(2d,p)
 ****
 1  2  13  14  15  16  17  18  19  20  21  23  24  26 0
 3-21G
 ****
 27  28  34  35  38  39  40  41  42  43  44  45  46  47  48 0
 3-21G
 ****


