%nproc=1
%NoSave
%Mem=1900MB
#P OB98/GEN NMR

erre ene a

0 1
  C      244.587     -10.493      66.564
  O      244.817     -11.896      66.355
  P      244.340     -12.940      67.479
  C      246.539     -13.207      68.856
  O      245.196     -12.751      68.821
  C      247.087     -13.226      70.292
  O      248.355     -13.949      70.336
  C      247.341     -11.839      70.896
  O      247.082     -11.938      72.305
  C      248.824     -11.637      70.648
  O      249.402     -10.647      71.486
  C      249.335     -13.057      70.910
  N      250.666     -13.327      70.359
  C      251.625     -13.874      71.208
  O      251.447     -14.091      72.404
  N      252.839     -14.147      70.633
  C      253.196     -13.895      69.338
  O      254.313     -14.135      68.895
  C      252.155     -13.292      68.499
  C      250.960     -13.040      69.038
  O      244.908     -14.326      66.908
  O      242.863     -13.033      67.680
  H      249.088      -9.779      71.173
  H      244.220     -15.017      66.971
  H      253.541     -14.557      71.230
  H      252.395     -13.080      67.465
  H      250.169     -12.604      68.432
  H      249.347     -13.252      71.988
  H      248.980     -11.327      69.610
  H      246.715     -11.056      70.450
  H      246.382     -13.794      70.916
  H      247.162     -12.541      68.248
  H      246.588     -14.211      68.422
  P      245.588     -11.663      72.828
  C      245.463      -9.072      72.503
  O      245.055     -10.354      72.082
  O      245.899     -11.139      74.314
  O      244.692     -12.861      72.804
  H      246.623     -10.490      74.337
  H      246.528      -9.056      72.754
  H      244.876      -8.764      73.371
  H      245.288      -8.360      71.688
  H      244.962      -9.942      65.727
  H      245.091     -10.178      67.454
  H      243.537     -10.315      66.667

 3  4  5  6  7  8  9  10  11  12  13  23  28  29  30  31  32 0
 6-311+G(2d,p)
 ****
 33  34 0
 6-311+G(2d,p)
 ****
 1  2  14  15  16  17  18  19  20  21  22  24  25  26 0
 3-21G
 ****
 27  35  36  37  38  39  40  41  42  43  44  45 0
 3-21G
 ****


