%nproc=1
%NoSave
%Mem=1900MB
#P OB98/GEN NMR

erre ene a

0 1
  C      120.802    -213.960     252.641
  O      119.715    -214.392     253.428
  H      120.506    -213.050     252.111
  H      121.062    -214.718     251.899
  H      121.668    -213.735     253.269
  P      119.855    -215.741     254.287
  C      121.622    -216.321     256.055
  O      120.719    -215.331     255.583
  C      122.201    -215.933     257.416
  O      122.958    -214.699     257.288
  C      121.135    -215.712     258.500
  O      121.516    -216.392     259.699
  C      121.170    -214.210     258.734
  O      120.697    -213.836     260.025
  C      122.644    -213.908     258.448
  N      122.880    -212.486     258.234
  C      123.465    -211.792     259.298
  O      123.756    -212.380     260.339
  N      123.656    -210.439     259.179
  C      123.254    -209.825     258.111
  N      123.444    -208.479     258.069
  C      122.606    -210.515     256.976
  C      122.457    -211.833     257.101
  O      120.373    -216.913     253.526
  O      118.396    -215.987     254.902
  H      119.756    -214.104     260.101
  H      118.305    -216.940     255.133
  H      122.283    -209.956     256.110
  H      121.991    -212.425     256.322
  H      123.281    -214.248     259.277
  H      120.537    -213.712     257.985
  H      120.142    -216.049     258.201
  H      122.921    -216.705     257.720
  H      123.887    -208.046     258.872
  H      122.425    -216.442     255.318
  H      123.152    -207.894     257.302
  H      121.080    -217.266     256.153
  P      120.328    -217.071     260.536
  C      118.821    -218.700     259.190
  O      120.035    -218.516     259.902
  O      119.046    -216.202     260.130
  O      120.555    -217.057     262.011
  H      118.758    -215.662     260.890
  H      118.768    -219.706     258.830
  H      118.787    -218.022     258.363
  H      117.993    -218.510     259.841

 6  7  8  9  10  11  12  13  14  15  16  26  30  31  32  33  35 0
 6-311+G(2d,p)
 ****
 37  38 0
 6-311+G(2d,p)
 ****
 1  2  3  4  5  17  18  19  20  21  22  23  24  25 0
 3-21G
 ****
 27  28  29  34  36  39  40  41  42  43  44  45  46 0
 3-21G
 ****


