%nproc=1
%NoSave
%Mem=1900MB
#P OB98/GEN NMR

erre ene a

0 1
  C     1289.493     625.752      51.316
  O     1290.696     626.245      51.872
  H     1289.411     626.114      50.279
  H     1288.638     626.130      51.877
  H     1289.480     624.659      51.302
  P     1291.141     625.723      53.316
  C     1292.744     623.944      52.354
  O     1291.588     624.190      53.148
  C     1293.857     623.344      53.226
  O     1293.438     622.048      53.729
  C     1295.168     623.112      52.489
  O     1295.876     624.318      52.277
  C     1295.839     622.118      53.422
  O     1296.478     622.802      54.517
  C     1294.657     621.278      53.929
  N     1294.566     619.977      53.242
  C     1295.573     619.064      53.524
  O     1296.501     619.306      54.315
  N     1295.520     617.901      52.822
  C     1294.668     617.629      51.793
  O     1294.822     616.672      51.035
  C     1293.589     618.600      51.575
  C     1293.597     619.721      52.295
  O     1290.178     625.987      54.430
  O     1292.541     626.477      53.571
  H     1292.394     627.225      54.177
  H     1297.129     623.415      54.111
  H     1296.288     617.248      52.985
  H     1292.845     618.385      50.807
  H     1292.838     620.471      52.135
  H     1294.744     621.087      55.011
  H     1296.609     621.528      52.900
  H     1294.958     622.618      51.534
  H     1294.006     624.014      54.099
  H     1293.090     624.893      51.940
  H     1292.488     623.259      51.547
  P     1296.478     624.652      50.830
  C     1294.382     625.912      50.025
  O     1295.266     624.814      49.803
  O     1297.578     623.746      50.378
  O     1297.003     626.167      50.987
  H     1297.941     626.196      50.661
  H     1293.618     625.912      49.276
  H     1294.932     626.829      49.973
  H     1293.934     625.819      50.992

 6  7  8  9  10  11  12  13  14  15  16  27  31  32  33  34  35 0
 6-311+G(2d,p)
 ****
 36  37 0
 6-311+G(2d,p)
 ****
 1  2  3  4  5  17  18  19  20  21  22  23  24  25 0
 3-21G
 ****
 26  28  29  30  38  39  40  41  42  43  44  45 0
 3-21G
 ****


