%nproc=1
%NoSave
%Mem=1900MB
#P OB98/GEN NMR

erre ene a

0 1
  C     -899.240     672.992     214.383
  O     -898.440     674.154     214.523
  H     -900.000     672.996     215.172
  H     -898.630     672.093     214.488
  H     -899.740     672.990     213.413
  P     -897.220     674.296     213.482
  C     -894.920     673.138     213.178
  O     -896.050     673.323     214.006
  C     -893.970     672.118     213.793
  O     -893.430     672.596     215.046
  C     -894.600     670.760     214.076
  O     -894.610     669.946     212.913
  C     -893.680     670.226     215.161
  O     -892.470     669.680     214.591
  C     -893.370     671.489     215.980
  N     -895.260     669.520     220.235
  C     -894.430     668.965     219.296
  N     -894.040     667.679     219.496
  N     -893.990     669.599     218.231
  C     -894.490     670.851     218.130
  C     -895.330     671.528     218.990
  C     -895.750     670.823     220.184
  O     -896.430     671.288     221.099
  N     -895.600     672.798     218.550
  C     -894.950     672.877     217.401
  N     -894.260     671.728     217.100
  O     -896.640     675.760     213.787
  O     -897.580     674.152     212.044
  H     -892.050     670.344     214.019
  H     -896.370     676.177     212.946
  H     -895.540     668.994     221.047
  H     -894.930     673.756     216.757
  H     -892.350     671.474     216.397
  H     -894.140     669.410     215.715
  H     -894.560     667.069     220.112
  H     -895.610     670.873     214.489
  H     -893.500     667.250     218.762
  H     -893.110     672.002     213.106
  H     -894.400     674.095     213.067
  H     -895.240     672.806     212.195
  P     -894.690     668.356     213.112
  C     -893.040     666.365     213.226
  O     -893.200     667.765     213.061
  O     -895.330     667.871     211.711
  O     -895.540     667.908     214.262
  H     -896.270     667.618     211.849
  H     -892.001     666.116     213.170
  H     -893.572     665.852     212.453
  H     -893.426     666.072     214.180

 6  7  8  9  10  11  12  13  14  15  26  29  33  34 0
 6-311+G(2d,p)
 ****
 36  38  39  40  41 0
 6-311+G(2d,p)
 ****
 1  2  3  4  5  16  17  18  19  20  21  22  23  24  25 0
 3-21G
 ****
 27  28  30  31  32  35  37  42  43  44  45  46  47 0
 3-21G
 ****
 48  49 0
 3-21G
 ****


