%nproc=1
%NoSave
%Mem=1900MB
#P OB98/GEN NMR

erre ene a

0 1
  C      -64.794     215.826     179.910
  O      -64.103     214.595     179.817
  P      -64.109     213.761     178.446
  C      -65.906     212.461     177.128
  O      -65.559     213.076     178.368
  C      -67.296     211.826     177.207
  O      -67.271     210.655     178.049
  C      -68.364     212.737     177.796
  O      -68.785     213.697     176.841
  C      -69.429     211.725     178.193
  O      -70.249     211.367     177.069
  C      -68.579     210.521     178.653
  N      -68.496     210.421     180.104
  C      -69.681     210.062     180.760
  O      -70.718     209.884     180.119
  N      -69.672     209.964     182.132
  C      -68.580     210.221     182.788
  N      -68.637     210.117     184.145
  C      -67.322     210.631     182.136
  C      -67.349     210.712     180.807
  O      -62.951     212.837     178.259
  O      -64.195     214.904     177.326
  H      -69.649     210.969     176.409
  H      -63.331     215.378     177.224
  H      -66.442     210.847     182.725
  H      -66.470     211.008     180.247
  H      -69.000     209.583     178.267
  H      -70.099     212.116     178.968
  H      -67.974     213.232     178.697
  H      -67.585     211.513     176.194
  H      -69.528     209.861     184.553
  H      -65.167     211.684     176.913
  H      -67.861     210.330     184.750
  H      -65.867     213.208     176.329
  P      -69.298     215.133     177.325
  C      -70.983     216.018     179.048
  O      -70.562     214.905     178.284
  O      -69.493     216.142     176.244
  O      -68.158     215.613     178.348
  H      -67.945     216.549     178.171
  H      -72.011     215.847     179.380
  H      -70.951     216.935     178.453
  H      -70.338     216.124     179.921
  H      -64.674     216.229     180.894
  H      -65.834     215.667     179.714
  H      -64.397     216.513     179.193

 3  4  5  6  7  8  9  10  11  12  13  23  27  28  29  30  32 0
 6-311+G(2d,p)
 ****
 34  35 0
 6-311+G(2d,p)
 ****
 1  2  14  15  16  17  18  19  20  21  22  24  25  26 0
 3-21G
 ****
 31  33  36  37  38  39  40  41  42  43  44  45  46 0
 3-21G
 ****


