%nproc=1
%NoSave
%Mem=1900MB
#P OB98/GEN NMR

erre ene a

0 1
  C      497.829     403.931     348.518
  O      498.764     404.383     349.475
  P      498.941     403.513     350.816
  C      497.256     402.869     352.729
  O      497.603     403.740     351.660
  C      495.756     402.933     353.003
  O      495.031     402.572     351.818
  C      495.264     401.981     354.096
  O      495.563     402.471     355.401
  C      493.773     401.908     353.769
  O      493.095     403.068     354.298
  C      493.787     401.955     352.230
  N      493.614     400.631     351.613
  C      492.339     400.093     351.665
  O      491.380     400.659     352.202
  N      492.192     398.853     351.103
  C      493.195     398.093     350.560
  O      493.007     396.961     350.116
  C      494.525     398.703     350.555
  C      494.669     399.927     351.080
  O      500.063     404.369     351.582
  O      499.306     402.092     350.543
  H      500.038     405.312     351.322
  H      493.163     402.987     355.284
  H      491.261     398.442     351.110
  H      495.347     398.137     350.155
  H      495.656     400.399     351.097
  H      492.983     402.615     351.869
  H      493.299     401.024     354.196
  H      495.710     400.992     353.953
  H      495.503     403.978     353.261
  H      497.813     403.183     353.638
  H      497.561     401.851     352.482
  P      495.087     401.544     356.636
  C      492.744     400.771     357.476
  O      493.497     401.674     356.706
  O      495.620     402.406     357.886
  O      495.625     400.145     356.577
  H      495.464     403.371     357.780
  H      491.767     401.216     357.697
  H      493.245     400.542     358.436
  H      492.600     399.841     356.927
  H      497.818     404.603     347.685
  H      496.855     403.895     348.960
  H      498.105     402.953     348.184

 3  4  5  6  7  8  9  10  11  12  13  24  28  29  30  31  32 0
 6-311+G(2d,p)
 ****
 33  34 0
 6-311+G(2d,p)
 ****
 1  2  14  15  16  17  18  19  20  21  22  23  25  26  27 0
 3-21G
 ****
 35  36  37  38  39  40  41  42  43  44  45 0
 3-21G
 ****


