%nproc=1
%NoSave
%Mem=1900MB
#P OB98/GEN NMR

erre ene a

0 1
  C     -507.474     609.483    -263.446
  O     -506.676     609.471    -262.282
  H     -507.554     608.463    -263.830
  H     -507.007     610.109    -264.212
  H     -508.479     609.854    -263.225
  P     -506.554     610.839    -261.453
  C     -504.449     611.701    -260.192
  O     -505.371     610.626    -260.392
  C     -503.230     611.212    -259.407
  O     -503.643     610.901    -258.049
  C     -502.574     609.958    -259.997
  O     -501.154     610.080    -259.855
  C     -503.073     608.833    -259.113
  O     -502.197     607.701    -259.092
  C     -503.226     609.549    -257.758
  N     -504.178     608.853    -256.894
  C     -503.991     607.478    -256.738
  O     -503.075     606.901    -257.329
  N     -504.886     606.779    -255.971
  C     -505.925     607.377    -255.464
  N     -506.793     606.619    -254.748
  C     -506.187     608.825    -255.666
  C     -505.282     609.492    -256.375
  O     -507.867     610.840    -260.537
  O     -506.435     612.079    -262.280
  H     -502.151     607.338    -260.008
  H     -508.182     611.751    -260.371
  H     -507.080     609.277    -255.254
  H     -505.391     610.557    -256.575
  H     -502.257     609.598    -257.243
  H     -504.059     608.498    -259.470
  H     -502.822     609.799    -261.052
  H     -502.506     612.042    -259.341
  H     -506.583     605.637    -254.640
  H     -504.950     612.488    -259.624
  H     -507.657     606.982    -254.347
  H     -504.149     612.102    -261.165
  P     -500.350     610.624    -261.141
  C     -497.994     609.581    -261.518
  O     -498.785     610.531    -260.815
  O     -500.662     612.194    -261.125
  O     -500.766     609.986    -262.423
  H     -501.266     612.420    -261.867
  H     -496.979     609.646    -261.186
  H     -498.040     609.785    -262.567
  H     -498.368     608.596    -261.330

 6  7  8  9  10  11  12  13  14  15  16  26  30  31  32  33  35 0
 6-311+G(2d,p)
 ****
 37  38 0
 6-311+G(2d,p)
 ****
 1  2  3  4  5  17  18  19  20  21  22  23  24  25 0
 3-21G
 ****
 27  28  29  34  36  39  40  41  42  43  44  45  46 0
 3-21G
 ****


