%nproc=1
%NoSave
%Mem=1900MB
#P OB98/GEN NMR

erre ene a

0 1
  C     -503.374    -224.683     -38.495
  O     -502.011    -225.041     -38.381
  H     -503.468    -223.615     -38.715
  H     -503.818    -225.250     -39.317
  H     -503.907    -224.923     -37.572
  P     -501.169    -224.322     -37.217
  C     -501.413    -226.391     -35.662
  O     -500.531    -225.510     -36.344
  C     -500.614    -227.507     -34.998
  O     -500.162    -228.453     -35.994
  C     -499.358    -227.034     -34.277
  O     -499.640    -226.523     -32.988
  C     -498.580    -228.337     -34.194
  O     -499.119    -229.160     -33.144
  C     -498.867    -228.961     -35.566
  N     -494.462    -230.417     -37.729
  C     -495.192    -230.944     -36.724
  N     -496.352    -230.497     -36.203
  C     -496.753    -229.379     -36.829
  C     -496.109    -228.716     -37.864
  C     -494.911    -229.288     -38.325
  N     -494.154    -228.741     -39.338
  N     -496.803    -227.578     -38.223
  C     -497.864    -227.572     -37.440
  N     -497.873    -228.633     -36.572
  O     -502.298    -223.726     -36.248
  O     -500.195    -223.287     -37.667
  H     -498.941    -228.694     -32.305
  H     -501.923    -223.010     -35.702
  H     -494.790    -231.853     -36.276
  H     -498.650    -226.827     -37.462
  H     -498.941    -230.053     -35.522
  H     -497.519    -228.190     -33.974
  H     -498.791    -226.314     -34.881
  H     -501.284    -228.042     -34.311
  H     -502.115    -226.824     -36.383
  H     -493.229    -229.120     -39.465
  H     -494.400    -227.824     -39.681
  H     -501.976    -225.827     -34.911
  P     -498.449    -225.778     -32.212
  C     -498.858    -223.225     -32.510
  O     -499.057    -224.387     -31.704
  O     -497.458    -225.344     -33.391
  O     -497.766    -226.606     -31.172
  H     -496.545    -225.264     -33.067
  H     -499.320    -222.382     -32.040
  H     -499.296    -223.380     -33.474
  H     -497.809    -223.042     -32.620

 6  7  8  9  10  11  12  13  14  15  25  28  32  33  34  35 0
 6-311+G(2d,p)
 ****
 36  39  40 0
 6-311+G(2d,p)
 ****
 1  2  3  4  5  16  17  18  19  20  21  22  23  24 0
 3-21G
 ****
 26  27  29  30  31  37  38  41  42  43  44  45  46  47 0
 3-21G
 ****
 48 0
 3-21G
 ****


