%nproc=1
%NoSave
%Mem=1900MB
#P OB98/GEN NMR

erre ene a

0 1
  C       98.198      56.448      37.261
  O       97.145      57.119      36.599
  H       98.933      57.186      37.591
  H       98.690      55.744      36.585
  H       97.821      55.916      38.140
  P       95.938      56.244      36.015
  C       96.620      57.116      33.681
  O       96.290      55.982      34.474
  C       96.427      56.796      32.203
  O       97.503      55.967      31.722
  C       95.129      56.046      31.896
  O       94.039      56.948      31.835
  C       95.478      55.437      30.547
  O       95.393      56.445      29.523
  C       96.945      55.025      30.766
  N       97.629      50.148      29.564
  C       97.421      51.242      28.746
  N       97.341      50.992      27.423
  N       97.282      52.464      29.188
  C       97.313      52.550      30.539
  C       97.498      51.537      31.453
  C       97.705      50.198      30.948
  O       97.910      49.200      31.637
  N       97.405      51.998      32.741
  C       97.205      53.297      32.606
  N       97.125      53.679      31.286
  O       94.557      56.787      36.233
  O       96.133      54.809      36.690
  H       95.884      56.100      28.753
  H       95.621      54.733      37.515
  H       97.710      49.227      29.163
  H       97.110      53.998      33.423
  H       97.538      55.096      29.847
  H       94.816      54.622      30.260
  H       97.156      50.063      27.062
  H       94.953      55.236      32.608
  H       97.138      51.772      26.811
  H       96.476      57.740      31.646
  H       97.667      57.367      33.887
  H       95.993      57.969      33.958
  P       92.591      56.539      32.403
  C       91.708      55.972      30.041
  O       92.018      55.484      31.342
  O       91.685      57.684      32.696
  O       92.903      55.620      33.669
  H       93.004      56.129      34.512
  H       91.338      55.169      29.438
  H       92.591      56.377      29.592
  H       90.963      56.736      30.115

 6  7  8  9  10  11  12  13  14  15  26  29  33  34 0
 6-311+G(2d,p)
 ****
 36  38  39  40  41 0
 6-311+G(2d,p)
 ****
 1  2  3  4  5  16  17  18  19  20  21  22  23  24  25 0
 3-21G
 ****
 27  28  30  31  32  35  37  42  43  44  45  46  47 0
 3-21G
 ****
 48  49 0
 3-21G
 ****


