%nproc=1
%NoSave
%Mem=1900MB
#P OB98/GEN NMR

erre ene a

0 1
  C       78.489    -203.597      24.383
  O       78.136    -202.337      23.827
  P       78.289    -201.033      24.748
  C       75.835    -201.138      25.579
  O       77.211    -201.166      25.932
  C       75.135    -199.922      26.183
  O       75.002    -200.116      27.617
  C       75.870    -198.594      25.971
  O       74.873    -197.570      25.850
  C       76.618    -198.404      27.276
  O       76.983    -197.046      27.498
  C       75.598    -198.968      28.261
  N       77.547    -197.280      32.678
  C       76.989    -196.628      31.634
  N       76.491    -197.148      30.492
  C       76.615    -198.487      30.487
  C       77.192    -199.283      31.461
  C       77.673    -198.627      32.608
  N       78.231    -199.288      33.676
  N       77.160    -200.609      31.085
  C       76.572    -200.614      29.905
  N       76.206    -199.358      29.515
  O       77.686    -199.876      23.820
  O       79.681    -200.716      25.178
  H       77.518    -197.000      28.313
  H       78.399    -199.269      23.541
  H       76.926    -195.548      31.732
  H       76.396    -201.492      29.299
  H       74.797    -198.250      28.482
  H       77.537    -199.002      27.267
  H       76.532    -198.583      25.099
  H       74.119    -199.868      25.771
  H       75.356    -202.043      25.962
  H       78.425    -198.765      34.513
  H       78.157    -200.299      33.717
  H       75.737    -201.130      24.489
  P       74.980    -196.598      24.581
  C       76.135    -194.663      25.866
  O       76.232    -195.635      24.842
  O       73.715    -195.631      24.749
  O       74.963    -197.305      23.265
  H       73.422    -195.309      23.876
  H       77.122    -194.522      26.315
  H       75.430    -194.963      26.648
  H       75.804    -193.716      25.431
  H       78.334    -204.365      23.654
  H       77.880    -203.792      25.241
  H       79.519    -203.583      24.673

 3  4  5  6  7  8  9  10  11  12  22  25  29  30  31  32 0
 6-311+G(2d,p)
 ****
 33  36  37 0
 6-311+G(2d,p)
 ****
 1  2  13  14  15  16  17  18  19  20  21  23  24  26 0
 3-21G
 ****
 27  28  34  35  38  39  40  41  42  43  44  45  46  47  48 0
 3-21G
 ****


