%nproc=1
%NoSave
%Mem=1900MB
#P OB98/GEN NMR

erre ene a

0 1
  C      575.054    -317.706     362.882
  O      574.008    -317.225     362.053
  P      574.055    -315.765     361.398
  C      572.323    -316.929     359.892
  O      572.778    -315.688     360.423
  C      570.954    -316.780     359.216
  O      569.956    -316.425     360.219
  C      570.906    -315.708     358.108
  O      569.979    -316.191     357.123
  C      570.326    -314.506     358.834
  O      569.780    -313.535     357.950
  C      569.321    -315.197     359.777
  N      568.942    -314.337     360.891
  C      567.656    -313.774     360.850
  O      566.934    -313.954     359.866
  N      567.244    -312.982     361.904
  C      568.079    -312.703     362.850
  N      567.620    -311.911     363.863
  C      569.480    -313.160     362.865
  C      569.839    -313.977     361.868
  O      575.352    -315.384     360.775
  O      573.612    -314.799     362.604
  H      570.494    -313.239     357.341
  H      574.375    -314.668     363.238
  H      570.156    -312.851     363.652
  H      570.844    -314.372     361.804
  H      568.409    -315.475     359.226
  H      571.125    -314.019     359.420
  H      571.880    -315.506     357.651
  H      570.672    -317.755     358.806
  H      566.635    -311.629     363.820
  H      572.225    -317.635     360.733
  H      568.148    -311.696     364.686
  H      573.058    -317.336     359.193
  P      570.481    -316.757     355.711
  C      568.464    -318.299     355.365
  O      569.172    -317.174     354.886
  O      571.537    -317.811     355.792
  O      571.011    -315.452     354.935
  H      571.565    -315.736     354.174
  H      567.471    -318.320     354.911
  H      568.354    -318.261     356.453
  H      569.000    -319.213     355.084
  H      574.821    -318.697     363.211
  H      575.160    -317.064     363.732
  H      575.970    -317.719     362.329

 3  4  5  6  7  8  9  10  11  12  13  23  27  28  29  30  32 0
 6-311+G(2d,p)
 ****
 34  35 0
 6-311+G(2d,p)
 ****
 1  2  14  15  16  17  18  19  20  21  22  24  25  26 0
 3-21G
 ****
 31  33  36  37  38  39  40  41  42  43  44  45  46 0
 3-21G
 ****


