%nproc=1
%NoSave
%Mem=1900MB
#P OB98/GEN NMR

erre ene a

0 1
  C       43.668     -13.791      73.836
  O       43.210     -12.484      73.520
  P       43.592     -11.296      74.530
  C       43.338     -10.868      77.068
  O       43.073     -11.745      75.981
  C       43.187     -11.593      78.402
  O       44.017     -12.787      78.386
  C       43.604     -10.759      79.628
  O       42.640     -10.944      80.676
  C       44.903     -11.412      80.077
  O       45.155     -11.205      81.462
  C       44.633     -12.867      79.687
  N       47.934     -15.443      82.520
  C       46.706     -14.902      82.864
  N       46.340     -15.015      84.161
  N       45.912     -14.298      82.016
  C       46.396     -14.288      80.749
  C       47.588     -14.797      80.283
  C       48.483     -15.407      81.245
  O       49.618     -15.826      81.021
  N       47.718     -14.606      78.930
  C       46.610     -13.980      78.576
  N       45.797     -13.721      79.653
  O       42.576     -10.133      74.104
  O       45.006     -10.831      74.462
  H       45.574     -10.326      81.547
  H       43.079      -9.323      73.879
  H       48.509     -15.881      83.217
  H       46.368     -13.669      77.564
  H       43.907     -13.318      80.382
  H       45.735     -10.990      79.500
  H       46.884     -15.500      84.858
  H       43.724      -9.691      79.423
  H       45.437     -14.646      84.426
  H       42.144     -11.930      78.501
  H       42.633     -10.031      77.035
  H       44.356     -10.478      76.965
  P       42.738      -9.923      81.911
  C       44.637      -9.428      83.632
  O       44.057     -10.344      82.721
  O       41.539     -10.382      82.870
  O       42.640      -8.485      81.517
  H       41.251      -9.640      83.434
  H       43.992      -8.556      83.804
  H       45.594      -9.088      83.236
  H       44.801      -9.935      84.588
  H       43.342     -14.476      73.081
  H       43.270     -14.089      74.784
  H       44.737     -13.793      73.881

 3  4  5  6  7  8  9  10  11  12  23  26  30  31  33  0
 6-311+G(2d,p)
 ****
 35  36  37  38 0
 6-311+G(2d,p)
 ****
 1  2  13  14  15  16  17  18  19  20  21  22  24  25  27  28  29 0
 3-21G
 ****
 32  34  39  40  41  42  43  44  45  46  47  48  49 0
 3-21G
 ****


