%nproc=1
%NoSave
%Mem=1900MB
#P OB98/GEN NMR

erre ene a

0 1
  C     -206.013     747.896    -244.020
  O     -204.695     747.964    -243.515
  H     -206.067     747.089    -244.757
  H     -206.279     748.835    -244.507
  H     -206.717     747.682    -243.210
  P     -204.399     749.093    -242.414
  C     -202.800     747.610    -241.006
  O     -202.938     748.767    -241.820
  C     -202.499     746.384    -241.868
  O     -201.292     746.634    -242.636
  C     -202.280     745.097    -241.056
  O     -202.852     743.998    -241.778
  C     -200.766     744.951    -241.051
  O     -200.360     743.604    -240.829
  C     -200.425     745.496    -242.436
  N     -195.978     744.038    -244.285
  C     -197.228     743.458    -244.393
  N     -197.308     742.302    -245.092
  N     -198.305     743.957    -243.850
  C     -198.085     745.125    -243.198
  C     -196.899     745.799    -243.017
  C     -195.707     745.221    -243.603
  O     -194.573     745.673    -243.527
  N     -197.087     746.933    -242.263
  C     -198.380     746.945    -241.999
  N     -199.027     745.874    -242.542
  O     -205.380     748.705    -241.209
  O     -204.592     750.501    -242.867
  H     -200.711     743.061    -241.565
  H     -205.652     749.500    -240.714
  H     -195.182     743.601    -244.714
  H     -198.890     747.701    -241.413
  H     -200.623     744.769    -243.232
  H     -200.332     745.576    -240.266
  H     -196.526     741.876    -245.562
  H     -202.699     745.137    -240.049
  H     -198.219     741.867    -245.189
  H     -203.313     746.259    -242.593
  H     -203.731     747.450    -240.454
  H     -201.987     747.771    -240.292
  P     -204.332     743.538    -241.372
  C     -205.041     742.225    -243.496
  O     -204.669     742.159    -242.125
  O     -205.255     744.612    -242.125
  O     -204.587     743.542    -239.899
  H     -205.645     745.220    -241.475
  H     -205.234     741.238    -243.861
  H     -204.246     742.665    -244.061
  H     -205.923     742.822    -243.598

 6  7  8  9  10  11  12  13  14  15  26  29  33  34 0
 6-311+G(2d,p)
 ****
 36  38  39  40  41 0
 6-311+G(2d,p)
 ****
 1  2  3  4  5  16  17  18  19  20  21  22  23  24  25 0
 3-21G
 ****
 27  28  30  31  32  35  37  42  43  44  45  46  47 0
 3-21G
 ****
 48  49 0
 3-21G
 ****


