%nproc=1
%NoSave
%Mem=1900MB
#P OB98/GEN NMR

erre ene a

0 1
  C     -148.299      79.191      -4.759
  O     -147.388      79.311      -3.681
  P     -146.045      78.430      -3.759
  C     -146.506      77.675      -1.302
  O     -145.579      78.186      -2.247
  C     -145.781      76.759      -0.315
  O     -145.054      75.736      -1.022
  C     -144.766      77.471       0.569
  O     -145.411      78.098       1.662
  C     -143.852      76.319       0.970
  O     -144.424      75.564       2.055
  C     -143.807      75.484      -0.317
  N     -139.121      74.105      -1.618
  C     -139.917      73.675      -0.572
  N     -139.402      72.703       0.212
  N     -141.107      74.150      -0.321
  C     -141.486      75.126      -1.180
  C     -140.784      75.647      -2.241
  C     -139.491      75.076      -2.538
  O     -138.791      75.352      -3.508
  N     -141.486      76.643      -2.868
  C     -142.623      76.699      -2.204
  N     -142.683      75.786      -1.184
  O     -144.971      79.460      -4.340
  O     -146.151      77.183      -4.579
  H     -145.216      75.095       1.737
  H     -144.854      79.332      -5.301
  H     -138.220      73.690      -1.772
  H     -143.439      77.366      -2.436
  H     -143.767      74.408      -0.110
  H     -142.875      76.668       1.314
  H     -138.483      72.307       0.095
  H     -144.198      78.205      -0.017
  H     -139.969      72.378       0.987
  H     -146.542      76.262       0.300
  H     -147.275      77.103      -1.826
  H     -146.981      78.511      -0.778
  P     -145.292      79.693       1.776
  C     -143.586      79.486       3.720
  O     -144.810      80.027       3.265
  O     -146.818      80.178       1.747
  O     -144.498      80.334       0.687
  H     -146.883      81.024       1.265
  H     -143.153      80.168       4.456
  H     -142.874      79.348       2.902
  H     -143.776      78.522       4.198
  H     -149.143      79.825      -4.585
  H     -148.626      78.175      -4.839
  H     -147.816      79.483      -5.668

 3  4  5  6  7  8  9  10  11  12  23  26  30  31 0
 6-311+G(2d,p)
 ****
 33  35  36  37  38 0
 6-311+G(2d,p)
 ****
 1  2  13  14  15  16  17  18  19  20  21  22  24  25 0
 3-21G
 ****
 27  28  29  32  34  39  40  41  42  43  44  45  46  47  48  49 0
 3-21G
 ****


