%nproc=1
%NoSave
%Mem=1900MB
#P OB98/GEN NMR

erre ene a

0 1
  C     -146.535     -31.111     -78.278
  O     -147.347     -30.084     -77.747
  H     -146.520     -31.947     -77.573
  H     -145.514     -30.745     -78.411
  H     -146.932     -31.463     -79.234
  P     -147.671     -28.846     -78.717
  C     -146.046     -27.362     -80.096
  O     -146.307     -28.010     -78.859
  C     -145.010     -26.259     -79.904
  O     -145.522     -25.237     -79.018
  C     -143.695     -26.732     -79.296
  O     -142.831     -27.292     -80.274
  C     -143.145     -25.419     -78.765
  O     -142.599     -24.644     -79.853
  C     -144.410     -24.746     -78.216
  N     -143.547     -23.269     -73.443
  C     -143.094     -22.733     -74.634
  N     -142.287     -21.656     -74.542
  N     -143.400     -23.213     -75.813
  C     -144.206     -24.300     -75.753
  C     -144.722     -24.920     -74.637
  C     -144.382     -24.375     -73.342
  O     -144.777     -24.795     -72.257
  N     -145.508     -25.989     -74.976
  C     -145.453     -26.030     -76.292
  N     -144.669     -25.029     -76.814
  O     -148.592     -27.896     -77.812
  O     -148.348     -29.196     -79.999
  H     -141.884     -25.176     -80.246
  H     -149.263     -27.473     -78.382
  H     -143.274     -22.866     -72.563
  H     -145.960     -26.755     -76.912
  H     -144.383     -23.656     -78.325
  H     -142.343     -25.560     -78.040
  H     -141.974     -21.265     -73.664
  H     -143.863     -27.421     -78.459
  H     -141.968     -21.224     -75.400
  H     -144.836     -25.787     -80.882
  H     -146.976     -26.924     -80.476
  H     -145.681     -28.101     -80.816
  P     -142.006     -28.613     -79.871
  C     -140.130     -29.024     -78.121
  O     -140.767     -28.095     -78.993
  O     -141.324     -29.047     -81.253
  O     -142.823     -29.709     -79.276
  H     -141.109     -29.999     -81.234
  H     -139.328     -28.538     -77.606
  H     -139.743     -29.842     -78.692
  H     -140.840     -29.390     -77.410

 6  7  8  9  10  11  12  13  14  15  26  29  33  34 0
 6-311+G(2d,p)
 ****
 36  38  39  40  41 0
 6-311+G(2d,p)
 ****
 1  2  3  4  5  16  17  18  19  20  21  22  23  24  25 0
 3-21G
 ****
 27  28  30  31  32  35  37  42  43  44  45  46  47 0
 3-21G
 ****
 48  49 0
 3-21G
 ****


