%nproc=1
%NoSave
%Mem=1900MB
#P OB98/GEN NMR

erre ene a

0 1
  C      -99.814    -371.986     296.620
  O     -101.146    -371.913     296.165
  P     -101.890    -373.099     295.400
  C     -101.901    -374.073     292.972
  O     -101.284    -373.207     293.917
  C     -102.368    -373.296     291.740
  O     -103.282    -372.250     292.165
  C     -101.189    -372.591     291.034
  O     -101.238    -372.661     289.612
  C     -101.202    -371.203     291.664
  O     -100.518    -370.221     290.890
  C     -102.693    -370.966     291.871
  N     -103.095    -366.103     293.293
  C     -102.964    -366.625     292.026
  N     -102.722    -365.744     291.031
  N     -103.021    -367.908     291.763
  C     -103.146    -368.683     292.867
  C     -103.291    -368.274     294.177
  C     -103.265    -366.855     294.444
  O     -103.265    -366.348     295.567
  N     -103.328    -369.344     295.038
  C     -103.177    -370.390     294.258
  N     -103.027    -370.042     292.935
  O     -103.375    -373.175     295.560
  O     -101.253    -374.400     296.121
  H     -100.672    -369.354     291.305
  H     -101.956    -375.086     296.149
  H     -102.966    -365.108     293.443
  H     -103.133    -371.422     294.601
  H     -103.166    -370.572     290.971
  H     -100.674    -371.273     292.621
  H     -102.524    -364.764     291.227
  H     -100.248    -373.086     291.283
  H     -102.374    -366.110     290.154
  H     -102.916    -373.970     291.062
  H     -102.760    -374.520     293.480
  H     -101.221    -374.882     292.688
  P     -100.054    -372.422     288.559
  C      -99.602    -370.754     286.668
  O     -100.233    -370.966     287.912
  O     -100.384    -373.395     287.335
  O      -98.679    -372.698     289.084
  H      -99.556    -373.785     286.997
  H      -99.560    -369.676     286.469
  H     -100.176    -371.234     285.874
  H      -98.581    -371.147     286.677
  H      -99.550    -371.066     297.099
  H      -99.162    -372.155     295.789
  H      -99.719    -372.792     297.318

 3  4  5  6  7  8  9  10  11  12  23  26  30  31 0
 6-311+G(2d,p)
 ****
 33  35  36  37  38 0
 6-311+G(2d,p)
 ****
 1  2  13  14  15  16  17  18  19  20  21  22  24  25 0
 3-21G
 ****
 27  28  29  32  34  39  40  41  42  43  44  45  46  47  48  49 0
 3-21G
 ****


