%nproc=1
%NoSave
%Mem=1900MB
#P OB98/GEN NMR

erre ene a

0 1
  C     -404.657    -891.900     408.564
  O     -403.923    -892.730     409.486
  P     -404.744    -893.710     410.463
  C     -403.946    -896.000     409.469
  O     -403.949    -895.100     410.577
  C     -402.844    -897.040     409.643
  O     -401.548    -896.460     409.368
  C     -402.722    -897.610     411.055
  O     -403.740    -898.570     411.320
  C     -401.324    -898.200     411.023
  O     -401.337    -899.510     410.407
  C     -400.569    -897.200     410.136
  N     -399.705    -896.310     410.897
  C     -398.572    -896.880     411.463
  O     -398.329    -898.090     411.401
  N     -397.756    -896.030     412.158
  C     -397.985    -894.700     412.390
  O     -397.215    -894.000     413.033
  C     -399.234    -894.170     411.839
  C     -400.026    -894.980     411.128
  O     -406.000    -894.110     409.558
  O     -405.199    -893.110     411.760
  H     -400.415    -899.830     410.437
  H     -406.771    -894.330     410.137
  H     -396.910    -896.420     412.555
  H     -399.460    -893.120     412.009
  H     -400.967    -894.610     410.714
  H     -399.962    -897.730     409.401
  H     -400.896    -898.320     412.021
  H     -402.760    -896.790     411.789
  H     -403.018    -897.850     408.912
  H     -403.764    -895.440     408.551
  H     -404.925    -896.480     409.408
  P     -403.892    -899.060     412.844
  C     -406.457    -898.700     413.193
  O     -405.392    -899.600     412.963
  O     -403.881    -897.650     413.619
  O     -402.797    -900.000     413.258
  H     -404.303    -896.950     413.097
  H     -406.276    -897.740     412.698
  H     -406.591    -898.550     414.261
  H     -407.375    -899.140     412.789
  H     -403.972    -891.312     407.990
  H     -405.312    -891.253     409.110
  H     -405.232    -892.519     407.907

 3  4  5  6  7  8  9  10  11  12  13  23  28  29  30  31  32 0
 6-311+G(2d,p)
 ****
 33  34 0
 6-311+G(2d,p)
 ****
 1  2  14  15  16  17  18  19  20  21  22  24  25  26 0
 3-21G
 ****
 27  35  36  37  38  39  40  41  42  43  44  45 0
 3-21G
 ****


