%nproc=1
%NoSave
%Mem=1900MB
#P OB98/GEN NMR

erre ene a

0 1
  C       43.314     477.585     -49.309
  O       43.684     478.330     -50.459
  P       43.891     477.520     -51.832
  C       46.261     476.867     -51.001
  O       45.475     477.405     -52.056
  C       47.755     476.896     -51.343
  O       48.004     475.967     -52.426
  C       48.269     478.274     -51.771
  O       49.593     478.422     -51.253
  C       48.340     478.169     -53.283
  O       49.281     479.094     -53.828
  C       48.697     476.691     -53.463
  N       48.343     476.194     -54.793
  C       49.381     475.691     -55.582
  O       50.543     475.747     -55.182
  N       49.083     475.179     -56.823
  C       47.875     475.272     -57.280
  N       47.631     474.752     -58.514
  C       46.775     475.911     -56.528
  C       47.070     476.324     -55.298
  O       43.437     478.586     -52.939
  O       43.122     476.245     -51.923
  H       48.962     480.004     -53.637
  H       43.041     478.137     -53.710
  H       45.791     475.993     -56.968
  H       46.318     476.788     -54.666
  H       49.778     476.531     -53.314
  H       47.354     478.384     -53.718
  H       47.638     479.092     -51.414
  H       48.310     476.535     -50.473
  H       48.405     474.335     -59.014
  H       45.974     475.824     -50.836
  H       46.718     474.779     -58.947
  H       46.067     477.425     -50.078
  P       49.777     479.312     -49.927
  C       49.992     481.425     -51.381
  O       50.607     480.599     -50.410
  O       50.901     478.484     -49.140
  O       48.585     479.557     -49.069
  H       51.063     478.893     -48.272
  H       50.596     482.329     -51.510
  H       48.986     481.715     -51.056
  H       49.939     480.897     -52.339
  H       43.211     478.246     -48.474
  H       44.069     476.857     -49.097
  H       42.382     477.090     -49.489

 3  4  5  6  7  8  9  10  11  12  13  21  23  27  28  29  30  32 0
 6-311+G(2d,p)
 ****
 34  35 0
 6-311+G(2d,p)
 ****
 1  2  14  15  16  17  18  19  20  22  24  25  26 0
 3-21G
 ****
 31  33  36  37  38  39  40  41  42  43  44  45  46 0
 3-21G
 ****


