%nproc=1
%NoSave
%Mem=1900MB
#P OB98/GEN NMR

erre ene a

0 1
  C      -34.818    -117.889     -78.255
  O      -34.522    -119.254     -78.461
  H      -35.550    -117.808     -77.445
  H      -35.250    -117.455     -79.159
  H      -33.921    -117.334     -77.969
  P      -33.349    -119.643     -79.480
  C      -31.462    -119.199     -77.783
  O      -32.047    -118.829     -79.026
  C      -29.945    -119.301     -77.932
  O      -29.602    -120.491     -78.679
  C      -29.322    -118.145     -78.706
  O      -29.249    -116.973     -77.918
  C      -27.983    -118.748     -79.090
  O      -27.042    -118.653     -78.014
  C      -28.356    -120.223     -79.359
  N      -28.466    -120.509     -80.790
  C      -27.278    -120.487     -81.514
  O      -26.179    -120.255     -81.011
  N      -27.399    -120.681     -82.866
  C      -28.574    -120.751     -83.554
  O      -28.643    -120.677     -84.776
  C      -29.793    -120.832     -82.733
  C      -29.685    -120.695     -81.410
  O      -33.692    -119.539     -80.929
  O      -32.984    -121.151     -79.073
  H      -33.389    -121.762     -79.717
  H      -26.189    -118.970     -78.376
  H      -26.545    -120.624     -83.401
  H      -30.741    -120.960     -83.241
  H      -30.574    -120.718     -80.785
  H      -27.605    -120.894     -78.927
  H      -27.551    -118.242     -79.956
  H      -29.902    -117.955     -79.618
  H      -29.504    -119.386     -76.932
  H      -31.865    -120.171     -77.481
  H      -31.727    -118.451     -77.029
  P      -28.819    -115.580     -78.582
  C      -31.353    -115.311     -78.925
  O      -30.055    -115.026     -79.441
  O      -27.512    -115.595     -79.305
  O      -28.767    -114.561     -77.344
  H      -27.913    -114.085     -77.365
  H      -32.094    -114.896     -79.575
  H      -31.452    -114.880     -77.951
  H      -31.487    -116.371     -78.862

 6  7  8  9  10  11  12  13  14  15  16  27  31  32  33  34  35 0
 6-311+G(2d,p)
 ****
 36  37 0
 6-311+G(2d,p)
 ****
 1  2  3  4  5  17  18  19  20  21  22  23  24  25 0
 3-21G
 ****
 26  28  29  30  38  39  40  41  42  43  44  45 0
 3-21G
 ****


