%nproc=1
%NoSave
%Mem=1900MB
#P OB98/GEN NMR

erre ene a

0 1
  C     -632.595     637.219     550.287
  O     -631.425     636.592     550.823
  P     -630.789     637.258     552.135
  C     -631.269     635.107     553.526
  O     -630.303     636.074     553.105
  C     -630.639     633.706     553.548
  O     -630.622     633.112     552.231
  C     -629.194     633.710     554.015
  O     -629.107     633.896     555.412
  C     -628.732     632.349     553.515
  O     -629.180     631.303     554.420
  C     -629.491     632.224     552.177
  N     -625.609     630.681     549.210
  C     -626.193     630.119     550.302
  N     -627.219     630.590     551.033
  C     -627.653     631.778     550.547
  C     -627.156     632.461     549.453
  C     -626.075     631.879     548.772
  N     -625.470     632.452     547.670
  N     -627.851     633.634     549.264
  C     -628.742     633.671     550.232
  N     -628.660     632.560     551.032
  O     -632.058     637.877     552.891
  O     -629.756     638.298     551.837
  H     -628.673     631.420     555.240
  H     -632.038     638.849     552.832
  H     -625.788     629.175     550.609
  H     -629.447     634.472     550.405
  H     -629.865     631.200     552.013
  H     -627.641     632.255     553.437
  H     -628.619     634.508     553.501
  H     -631.251     633.087     554.212
  H     -632.136     635.118     552.846
  H     -624.646     631.995     547.297
  H     -625.753     633.374     547.393
  H     -631.647     635.376     554.516
  P     -627.647     633.927     556.079
  C     -628.136     636.320     556.879
  O     -627.788     635.007     557.271
  O     -626.810     634.727     554.971
  O     -627.097     632.598     556.463
  H     -627.294     635.526     554.652
  H     -628.227     636.940     557.780
  H     -629.070     636.324     556.340
  H     -627.338     636.751     556.244
  H     -632.920     636.684     549.419
  H     -632.367     638.229     550.019
  H     -633.372     637.212     551.022

 3  4  5  6  7  8  9  10  11  12  22  25  29  30  31  32 0
 6-311+G(2d,p)
 ****
 33  36  37 0
 6-311+G(2d,p)
 ****
 1  2  13  14  15  16  17  18  19  20  21  23  24  26 0
 3-21G
 ****
 27  28  34  35  38  39  40  41  42  43  44  45  46  47  48 0
 3-21G
 ****


