%nproc=1
%NoSave
%Mem=1900MB
#P OB98/GEN NMR

erre ene a

0 1
  C      -54.914    -131.923    -254.744
  O      -53.737    -132.076    -255.508
  H      -54.720    -132.270    -253.724
  H      -55.717    -132.530    -255.173
  H      -55.219    -130.874    -254.707
  P      -53.746    -131.434    -256.981
  C      -55.387    -131.706    -258.977
  O      -54.763    -132.317    -257.856
  C      -55.952    -132.770    -259.912
  O      -54.877    -133.525    -260.523
  C      -56.856    -133.789    -259.231
  O      -58.183    -133.302    -259.082
  C      -56.800    -134.929    -260.234
  O      -57.647    -134.627    -261.362
  C      -55.324    -134.906    -260.656
  N      -53.710    -139.659    -259.943
  C      -54.615    -139.158    -260.862
  N      -55.178    -140.049    -261.704
  N      -54.943    -137.892    -260.942
  C      -54.310    -137.117    -260.031
  C      -53.392    -137.495    -259.076
  C      -53.034    -138.895    -259.001
  O      -52.218    -139.390    -258.224
  N      -52.961    -136.424    -258.341
  C      -53.628    -135.400    -258.834
  N      -54.467    -135.769    -259.858
  O      -52.309    -131.838    -257.572
  O      -53.960    -129.960    -257.038
  H      -58.562    -134.605    -261.028
  H      -51.986    -131.109    -258.136
  H      -53.500    -140.643    -259.916
  H      -53.542    -134.379    -258.491
  H      -55.187    -135.195    -261.704
  H      -57.148    -135.876    -259.817
  H      -55.006    -141.043    -261.659
  H      -56.436    -134.126    -258.274
  H      -55.821    -139.702    -262.406
  H      -56.489    -132.256    -260.723
  H      -54.644    -131.105    -259.518
  H      -56.190    -131.048    -258.625
  P      -58.914    -133.555    -257.670
  C      -59.578    -135.690    -256.338
  O      -59.138    -135.141    -257.580
  O      -60.390    -132.987    -257.923
  O      -58.257    -132.916    -256.494
  H      -60.807    -132.749    -257.073
  H      -59.681    -136.751    -256.434
  H      -60.522    -135.262    -256.074
  H      -58.860    -135.469    -255.576

 6  7  8  9  10  11  12  13  14  15  26  29  33  34 0
 6-311+G(2d,p)
 ****
 36  38  39  40  41 0
 6-311+G(2d,p)
 ****
 1  2  3  4  5  16  17  18  19  20  21  22  23  24  25 0
 3-21G
 ****
 27  28  30  31  32  35  37  42  43  44  45  46  47 0
 3-21G
 ****
 48  49 0
 3-21G
 ****


