%nproc=1
%NoSave
%Mem=1900MB
#P OB98/GEN NMR

erre ene a

0 1
  C      181.546    -301.621    -182.330
  O      182.419    -302.225    -183.281
  P      183.735    -303.051    -182.920
  C      184.332    -303.603    -185.422
  O      184.716    -303.022    -184.181
  C      183.406    -302.664    -186.209
  O      184.092    -301.390    -186.407
  C      183.058    -303.210    -187.599
  O      181.694    -303.027    -187.958
  C      184.104    -302.560    -188.488
  O      183.746    -302.545    -189.862
  C      184.281    -301.197    -187.826
  N      186.849    -297.356    -189.998
  C      185.509    -297.675    -190.091
  N      184.750    -296.881    -190.876
  N      184.963    -298.693    -189.481
  C      185.846    -299.449    -188.792
  C      187.199    -299.245    -188.639
  C      187.784    -298.085    -189.277
  O      188.960    -297.746    -189.212
  N      187.765    -300.222    -187.860
  C      186.765    -301.023    -187.559
  N      185.573    -300.592    -188.098
  O      183.517    -304.375    -182.268
  O      184.498    -302.108    -181.856
  H      182.872    -302.116    -189.938
  H      184.971    -302.710    -181.247
  H      187.211    -296.546    -190.472
  H      186.838    -301.916    -186.948
  H      183.536    -300.473    -188.168
  H      185.024    -303.149    -188.404
  H      185.126    -296.160    -191.467
  H      183.185    -304.299    -187.632
  H      183.827    -297.247    -191.115
  H      182.507    -302.476    -185.614
  H      183.798    -304.527    -185.169
  H      185.209    -303.879    -186.010
  P      180.474    -304.047    -187.804
  C      178.938    -302.191    -186.922
  O      179.105    -303.221    -187.879
  O      180.522    -304.522    -186.275
  O      180.532    -305.230    -188.713
  H      180.668    -305.486    -186.235
  H      177.886    -301.895    -186.905
  H      179.547    -301.327    -187.200
  H      179.225    -302.538    -185.926
  H      180.744    -301.132    -182.842
  H      182.090    -300.904    -181.751
  H      181.148    -302.374    -181.682

 3  4  5  6  7  8  9  10  11  12  23  26  30  31 0
 6-311+G(2d,p)
 ****
 33  35  36  37  38 0
 6-311+G(2d,p)
 ****
 1  2  13  14  15  16  17  18  19  20  21  22  24  25 0
 3-21G
 ****
 27  28  29  32  34  39  40  41  42  43  44  45  46  47  48  49 0
 3-21G
 ****


