%nproc=1
%NoSave
%Mem=1900MB
#P OB98/GEN NMR

erre ene a

0 1
  C     -217.386    -106.641      98.275
  O     -216.729    -106.859      97.025
  P     -215.229    -106.343      96.822
  C     -213.770    -108.411      96.291
  O     -214.205    -107.487      97.282
  C     -214.704    -109.624      96.258
  O     -216.007    -109.276      95.731
  C     -214.202    -110.734      95.344
  O     -213.050    -111.434      95.766
  C     -215.461    -111.548      95.103
  O     -215.706    -112.466      96.168
  C     -216.546    -110.444      95.076
  N     -217.000    -110.132      93.721
  C     -218.266    -110.597      93.380
  O     -218.964    -111.272      94.132
  N     -218.691    -110.291      92.115
  C     -217.978    -109.611      91.171
  O     -218.399    -109.383      90.045
  C     -216.637    -109.165      91.583
  C     -216.215    -109.441      92.819
  O     -214.936    -104.978      97.350
  O     -215.064    -106.363      95.222
  H     -216.661    -112.673      96.160
  H     -214.570    -105.560      94.963
  H     -219.609    -110.613      91.851
  H     -216.041    -108.627      90.860
  H     -215.232    -109.122      93.144
  H     -217.422    -110.755      95.659
  H     -215.391    -112.137      94.183
  H     -213.933    -110.279      94.380
  H     -214.848    -109.981      97.279
  H     -212.747    -108.727      96.504
  H     -213.742    -107.905      95.320
  P     -211.596    -111.193      95.137
  C     -210.328    -110.989      97.389
  O     -210.721    -110.359      96.190
  O     -211.528    -110.772      93.707
  O     -210.949    -112.660      95.267
  H     -210.345    -112.797      94.514
  H     -209.758    -110.273      97.988
  H     -209.693    -111.852      97.178
  H     -211.205    -111.302      97.961
  H     -218.375    -107.048      98.234
  H     -217.441    -105.590      98.471
  H     -216.835    -107.121      99.056

 3  4  5  6  7  8  9  10  11  12  13  23  28  29  30  31  32 0
 6-311+G(2d,p)
 ****
 33  34 0
 6-311+G(2d,p)
 ****
 1  2  14  15  16  17  18  19  20  21  22  24  25  26  27 0
 3-21G
 ****
 35  36  37  38  39  40  41  42  43  44  45 0
 3-21G
 ****


