%nproc=1
%NoSave
%Mem=1900MB
#P OB98/GEN NMR

erre ene a

0 1
  C      -59.457     130.022      -2.369
  O      -60.661     130.021      -1.620
  P      -61.221     131.368      -0.948
  C      -60.347     132.882       0.956
  O      -60.302     131.600       0.344
  C      -60.006     132.761       2.439
  O      -60.898     131.818       3.066
  C      -58.598     132.255       2.725
  O      -57.635     133.276       2.519
  C      -58.750     131.776       4.164
  O      -58.686     132.889       5.070
  C      -60.179     131.191       4.154
  N      -60.196     129.737       4.028
  C      -60.307     129.010       5.218
  O      -60.394     129.578       6.305
  N      -60.352     127.638       5.148
  C      -60.269     127.043       3.998
  N      -60.388     125.687       3.983
  C      -60.095     127.769       2.726
  C      -60.072     129.098       2.814
  O      -62.689     131.371      -0.678
  O      -60.742     132.535      -1.927
  H      -58.721     132.517       5.974
  H      -61.381     132.725      -2.659
  H      -60.018     127.229       1.793
  H      -59.968     129.706       1.924
  H      -60.710     131.472       5.071
  H      -57.985     131.051       4.467
  H      -58.360     131.401       2.077
  H      -60.161     133.743       2.908
  H      -60.680     125.248       4.849
  H      -61.362     133.283       0.853
  H      -60.620     125.186       3.133
  H      -59.649     133.553       0.444
  P      -56.200     132.839       1.949
  C      -54.129     131.640       2.950
  O      -55.435     132.140       3.177
  O      -55.445     134.234       1.746
  O      -56.255     132.037       0.690
  H      -55.456     134.493       0.806
  H      -53.670     131.422       3.918
  H      -53.517     132.378       2.426
  H      -54.180     130.715       2.370
  H      -59.260     129.034      -2.729
  H      -58.649     130.342      -1.745
  H      -59.553     130.691      -3.198

 3  4  5  6  7  8  9  10  11  12  13  23  27  28  29  30  32 0
 6-311+G(2d,p)
 ****
 34  35 0
 6-311+G(2d,p)
 ****
 1  2  14  15  16  17  18  19  20  21  22  24  25  26 0
 3-21G
 ****
 31  33  36  37  38  39  40  41  42  43  44  45  46 0
 3-21G
 ****


