%nproc=1
%NoSave
%Mem=1900MB
#P OB98/GEN NMR

erre ene a

0 1
  C     1229.521     192.118     328.448
  O     1230.587     193.004     328.769
  P     1232.029     192.353     329.071
  C     1233.078     194.169     330.619
  O     1233.018     193.586     329.313
  C     1233.721     195.537     330.571
  O     1235.078     195.447     330.095
  C     1233.029     196.532     329.627
  O     1231.880     197.128     330.246
  C     1234.123     197.561     329.440
  O     1234.188     198.448     330.576
  C     1235.387     196.670     329.381
  N     1239.015     197.354     325.847
  C     1238.854     197.873     327.072
  N     1237.858     197.656     327.965
  C     1236.939     196.821     327.427
  C     1236.938     196.234     326.175
  C     1238.061     196.526     325.354
  N     1238.229     195.973     324.098
  N     1235.832     195.463     325.988
  C     1235.158     195.538     327.113
  N     1235.798     196.347     328.025
  O     1232.465     191.783     327.636
  O     1232.029     191.286     330.122
  H     1234.876     199.109     330.380
  H     1233.130     191.076     327.744
  H     1239.632     198.555     327.414
  H     1234.219     195.036     327.327
  H     1236.237     197.126     329.874
  H     1233.969     198.191     328.556
  H     1232.781     196.062     328.685
  H     1233.746     195.935     331.589
  H     1233.674     193.518     331.270
  H     1239.132     196.078     323.665
  H     1237.620     195.213     323.822
  H     1232.052     194.217     331.016
  P     1230.466     196.919     329.491
  C     1230.109     199.502     329.392
  O     1229.626     198.232     329.822
  O     1229.778     195.786     330.378
  O     1230.601     196.551     328.063
  H     1229.130     195.298     329.828
  H     1229.291     200.220     329.419
  H     1230.505     199.436     328.359
  H     1230.913     199.837     330.053
  H     1228.629     192.682     328.273
  H     1229.361     191.442     329.262
  H     1229.771     191.563     327.568

 3  4  5  6  7  8  9  10  11  12  22  25  29  30  31  32 0
 6-311+G(2d,p)
 ****
 33  36  37 0
 6-311+G(2d,p)
 ****
 1  2  13  14  15  16  17  18  19  20  21  23  24  26 0
 3-21G
 ****
 27  28  34  35  38  39  40  41  42  43  44  45  46  47  48 0
 3-21G
 ****


