%nproc=1
%NoSave
%Mem=1900MB
#P OB98/GEN NMR

erre ene a

0 1
  C      741.210    -646.397      -5.932
  O      742.447    -645.727      -5.742
  P      742.684    -644.987      -4.334
  C      741.552    -642.946      -3.185
  O      741.775    -643.664      -4.393
  C      740.920    -641.576      -3.476
  O      739.759    -641.745      -4.311
  C      740.440    -640.843      -2.237
  O      741.494    -640.159      -1.570
  C      739.477    -639.836      -2.873
  O      740.201    -638.738      -3.438
  C      738.835    -640.675      -3.976
  N      733.779    -640.593      -4.764
  C      734.771    -639.833      -5.249
  N      736.089    -639.909      -4.982
  C      736.341    -640.878      -4.070
  C      735.408    -641.703      -3.457
  C      734.072    -641.552      -3.851
  N      733.054    -642.355      -3.370
  N      736.043    -642.576      -2.589
  C      737.321    -642.273      -2.694
  N      737.561    -641.268      -3.584
  O      744.171    -644.424      -4.470
  O      742.502    -645.836      -3.128
  H      740.588    -638.241      -2.688
  H      744.551    -644.275      -3.576
  H      734.468    -639.059      -5.960
  H      738.112    -642.763      -2.133
  H      738.646    -640.095      -4.892
  H      738.776    -639.422      -2.142
  H      739.881    -641.495      -1.564
  H      741.668    -640.983      -4.020
  H      742.511    -642.801      -2.674
  H      732.160    -642.293      -3.826
  H      733.319    -643.181      -2.852
  H      740.889    -643.539      -2.534
  P      741.735    -640.538      -0.029
  C      740.257    -640.388       2.119
  O      740.437    -640.033       0.741
  O      742.876    -639.505       0.421
  O      742.131    -641.954       0.196
  H      743.389    -639.863       1.161
  H      739.509    -639.714       2.550
  H      741.209    -640.262       2.664
  H      739.922    -641.410       2.176
  H      741.190    -646.840      -6.906
  H      740.407    -645.695      -5.843
  H      741.100    -647.160      -5.190

 3  4  5  6  7  8  9  10  11  12  22  25  29  30  31  32 0
 6-311+G(2d,p)
 ****
 33  36  37 0
 6-311+G(2d,p)
 ****
 1  2  13  14  15  16  17  18  19  20  21  23  24  26 0
 3-21G
 ****
 27  28  34  35  38  39  40  41  42  43  44  45  46  47  48 0
 3-21G
 ****


