%nproc=1
%NoSave
%Mem=1900MB
#P OB98/GEN NMR

erre ene a

0 1
  C      369.179    -137.684     255.910
  O      368.420    -136.718     256.603
  H      369.709    -138.300     256.637
  H      369.912    -137.184     255.269
  H      368.541    -138.331     255.299
  P      367.215    -135.992     255.842
  C      366.018    -135.742     258.118
  O      366.416    -135.098     256.910
  C      364.888    -134.982     258.812
  O      363.801    -134.772     257.889
  C      364.311    -135.756     260.004
  O      364.994    -135.546     261.229
  C      362.885    -135.210     260.071
  O      362.817    -134.028     260.885
  C      362.568    -134.880     258.607
  N      357.839    -136.751     258.070
  C      358.304    -135.821     258.983
  N      357.401    -135.369     259.877
  N      359.539    -135.399     259.009
  C      360.346    -136.015     258.115
  C      360.004    -136.966     257.180
  C      358.619    -137.372     257.104
  O      358.151    -138.180     256.306
  N      361.099    -137.394     256.468
  C      362.114    -136.769     257.039
  N      361.696    -135.863     257.989
  O      366.184    -137.189     255.553
  O      367.583    -135.294     254.568
  H      363.277    -133.310     260.408
  H      365.700    -137.007     254.726
  H      356.870    -137.016     258.075
  H      363.155    -136.897     256.773
  H      362.060    -133.908     258.521
  H      362.212    -135.942     260.522
  H      356.463    -135.722     259.956
  H      364.259    -136.826     259.781
  H      357.748    -134.835     260.680
  H      365.251    -133.993     259.118
  H      366.903    -135.770     258.759
  H      365.720    -136.774     257.916
  P      365.325    -136.762     262.205
  C      367.438    -135.372     262.917
  O      366.415    -136.279     263.266
  O      366.144    -137.767     261.267
  O      364.137    -137.424     262.836
  H      365.562    -138.478     260.933
  H      368.055    -135.184     263.771
  H      367.002    -134.454     262.583
  H      368.033    -135.790     262.132

 6  7  8  9  10  11  12  13  14  15  26  29  33  34 0
 6-311+G(2d,p)
 ****
 36  38  39  40  41 0
 6-311+G(2d,p)
 ****
 1  2  3  4  5  16  17  18  19  20  21  22  23  24  25 0
 3-21G
 ****
 27  28  30  31  32  35  37  42  43  44  45  46  47 0
 3-21G
 ****
 48  49 0
 3-21G
 ****


