%nproc=1
%NoSave
%Mem=1900MB
#P OB98/GEN NMR

erre ene a

0 1
  C     -470.638    -191.566    -511.901
  O     -470.949    -190.467    -512.739
  H     -469.562    -191.569    -511.712
  H     -470.911    -192.498    -512.405
  H     -471.166    -191.490    -510.946
  P     -472.501    -190.081    -512.873
  C     -474.322    -190.702    -514.616
  O     -473.133    -191.096    -513.951
  C     -474.178    -190.906    -516.124
  O     -473.386    -189.846    -516.705
  C     -473.496    -192.211    -516.516
  O     -474.417    -193.299    -516.530
  C     -473.031    -191.875    -517.922
  O     -474.146    -191.945    -518.837
  C     -472.571    -190.417    -517.767
  N     -467.816    -191.818    -518.855
  C     -469.012    -192.254    -519.392
  N     -468.932    -193.205    -520.351
  N     -470.187    -191.800    -519.024
  C     -470.111    -190.873    -518.042
  C     -468.992    -190.362    -517.423
  C     -467.700    -190.858    -517.854
  O     -466.612    -190.495    -517.422
  N     -469.317    -189.433    -516.466
  C     -470.636    -189.394    -516.490
  N     -471.170    -190.252    -517.425
  O     -472.450    -188.682    -513.651
  O     -473.243    -189.956    -511.587
  H     -473.811    -191.688    -519.717
  H     -472.597    -187.958    -513.015
  H     -466.940    -192.199    -519.171
  H     -471.249    -188.764    -515.863
  H     -472.749    -189.826    -518.674
  H     -472.274    -192.566    -518.296
  H     -468.060    -193.611    -520.664
  H     -472.626    -192.427    -515.880
  H     -469.796    -193.537    -520.756
  H     -475.181    -190.843    -516.572
  H     -474.516    -189.643    -514.410
  H     -475.164    -191.301    -514.240
  P     -473.833    -194.785    -516.388
  C     -473.671    -196.859    -517.936
  O     -473.914    -195.469    -517.842
  O     -474.982    -195.533    -515.559
  O     -472.512    -194.890    -515.700
  H     -474.658    -195.749    -514.660
  H     -473.759    -197.168    -518.957
  H     -474.386    -197.387    -517.340
  H     -472.684    -197.073    -517.583

 6  7  8  9  10  11  12  13  14  15  26  29  33  34 0
 6-311+G(2d,p)
 ****
 36  38  39  40  41 0
 6-311+G(2d,p)
 ****
 1  2  3  4  5  16  17  18  19  20  21  22  23  24  25 0
 3-21G
 ****
 27  28  30  31  32  35  37  42  43  44  45  46  47 0
 3-21G
 ****
 48  49 0
 3-21G
 ****


