%nproc=1
%NoSave
%Mem=1900MB
#P OB98/GEN NMR

erre ene a

0 1
  C     -373.024     259.800     -37.533
  O     -372.894     261.205     -37.609
  H     -372.177     259.342     -38.048
  H     -373.947     259.482     -38.025
  H     -373.021     259.463     -36.493
  P     -373.911     262.120     -36.773
  C     -372.539     263.012     -34.774
  O     -373.034     263.271     -36.081
  C     -371.583     264.124     -34.326
  O     -371.268     263.925     -32.909
  C     -370.242     264.151     -35.087
  O     -369.803     265.519     -35.110
  C     -369.373     263.310     -34.171
  O     -368.007     263.391     -34.491
  C     -369.829     263.864     -32.811
  N     -369.425     263.083     -31.651
  C     -368.090     263.137     -31.265
  O     -367.225     263.806     -31.836
  N     -367.751     262.383     -30.172
  C     -368.600     261.609     -29.435
  O     -368.251     260.981     -28.446
  C     -369.999     261.585     -29.895
  C     -370.338     262.312     -30.957
  O     -374.838     261.393     -35.857
  O     -374.712     262.924     -37.905
  H     -375.590     262.519     -38.031
  H     -367.903     263.360     -35.464
  H     -366.788     262.418     -29.878
  H     -370.695     260.974     -29.341
  H     -371.369     262.325     -31.311
  H     -369.471     264.895     -32.692
  H     -369.643     262.252     -34.270
  H     -370.320     263.779     -36.109
  H     -372.102     265.087     -34.400
  H     -372.005     262.054     -34.795
  H     -373.382     262.935     -34.080
  P     -369.555     266.346     -36.462
  C     -371.982     267.066     -36.987
  O     -370.686     267.479     -36.573
  O     -369.440     265.493     -37.683
  O     -368.207     267.175     -36.210
  H     -367.771     267.355     -37.062
  H     -372.634     267.914     -37.018
  H     -372.366     266.347     -36.294
  H     -371.922     266.626     -37.961

 6  7  8  9  10  11  12  13  14  15  16  27  31  32  33  34  35 0
 6-311+G(2d,p)
 ****
 36  37 0
 6-311+G(2d,p)
 ****
 1  2  3  4  5  17  18  19  20  21  22  23  24  25 0
 3-21G
 ****
 26  28  29  30  38  39  40  41  42  43  44  45 0
 3-21G
 ****


