%nproc=1
%NoSave
%Mem=1900MB
#P OB98/GEN NMR

erre ene a

0 1
  C       15.060     400.567      -9.448
  O       15.978     399.904     -10.322
  P       15.671     398.451     -10.931
  C       16.288     398.805     -13.398
  O       16.634     398.147     -12.185
  C       17.428     398.815     -14.427
  O       18.442     399.797     -14.072
  C       18.155     397.475     -14.600
  O       18.581     397.433     -15.965
  C       19.345     397.637     -13.670
  O       20.406     396.728     -13.946
  C       19.692     399.101     -13.913
  N       24.418     400.029     -12.172
  C       23.972     399.613     -13.374
  N       22.698     399.425     -13.774
  C       21.835     399.757     -12.804
  C       22.142     400.206     -11.529
  C       23.509     400.334     -11.218
  N       23.970     400.713      -9.976
  N       20.988     400.416     -10.789
  C       20.010     400.086     -11.605
  N       20.466     399.686     -12.834
  O       14.222     398.192     -11.202
  O       16.203     397.434      -9.808
  H       20.593     396.761     -14.902
  H       15.532     396.738      -9.666
  H       24.742     399.393     -14.110
  H       18.956     400.096     -11.355
  H       20.263     399.224     -14.844
  H       19.018     397.464     -12.636
  H       17.535     396.609     -14.358
  H       17.002     399.144     -15.386
  H       16.001     399.839     -13.166
  H       24.971     400.686      -9.822
  H       23.314     400.818      -9.220
  H       15.408     398.310     -13.830
  P       18.800     396.044     -16.739
  C       17.588     396.972     -18.794
  O       18.781     396.383     -18.304
  O       17.878     394.944     -16.324
  O       20.331     395.665     -16.464
  H       20.465     394.714     -16.634
  H       16.813     396.209     -18.891
  H       17.786     397.412     -19.775
  H       17.234     397.762     -18.122
  H       15.462     401.517      -9.163
  H       14.904     399.969      -8.574
  H       14.128     400.711      -9.953

 3  4  5  6  7  8  9  10  11  12  22  25  29  30  31  32 0
 6-311+G(2d,p)
 ****
 33  36  37 0
 6-311+G(2d,p)
 ****
 1  2  13  14  15  16  17  18  19  20  21  23  24  26 0
 3-21G
 ****
 27  28  34  35  38  39  40  41  42  43  44  45  46  47  48 0
 3-21G
 ****


