%nproc=1
%NoSave
%Mem=1900MB
#P OB98/GEN NMR

erre ene a

0 1
  C        2.141     -61.456     -37.937
  O        2.976     -62.453     -38.487
  H        2.050     -60.641     -38.659
  H        2.571     -61.058     -37.013
  H        1.145     -61.860     -37.741
  P        3.365     -63.712     -37.571
  C        4.176     -63.878     -35.116
  O        4.034     -63.056     -36.263
  C        4.846     -63.098     -33.987
  O        4.177     -61.842     -33.757
  C        4.835     -63.797     -32.631
  O        5.755     -64.872     -32.542
  C        5.214     -62.632     -31.732
  O        6.624     -62.372     -31.848
  C        4.386     -61.485     -32.362
  N        3.105     -61.271     -31.692
  C        3.145     -60.598     -30.464
  O        4.215     -60.216     -29.994
  N        1.971     -60.405     -29.777
  C        0.859     -60.860     -30.262
  N       -0.269     -60.684     -29.519
  C        0.769     -61.559     -31.559
  C        1.916     -61.733     -32.211
  O        4.168     -64.787     -38.229
  O        1.966     -64.229     -36.991
  H        6.863     -61.765     -31.124
  H        2.152     -65.017     -36.424
  H       -0.183     -61.925     -31.914
  H        1.934     -62.252     -33.163
  H        4.952     -60.546     -32.351
  H        5.003     -62.816     -30.675
  H        3.824     -64.126     -32.370
  H        5.869     -62.863     -34.310
  H       -0.162     -60.240     -28.617
  H        4.771     -64.753     -35.395
  H       -1.101     -61.240     -29.685
  H        3.195     -64.213     -34.768
  P        5.555     -65.935     -31.354
  C        6.186     -66.003     -28.827
  O        6.092     -65.234     -30.015
  O        6.665     -67.039     -31.675
  O        4.183     -66.518     -31.230
  H        6.290     -67.773     -32.200
  H        6.559     -65.389     -28.034
  H        6.853     -66.825     -28.986
  H        5.217     -66.375     -28.565

 6  7  8  9  10  11  12  13  14  15  16  26  30  31  32  33  35 0
 6-311+G(2d,p)
 ****
 37  38 0
 6-311+G(2d,p)
 ****
 1  2  3  4  5  17  18  19  20  21  22  23  24  25 0
 3-21G
 ****
 27  28  29  34  36  39  40  41  42  43  44  45  46 0
 3-21G
 ****


