%nproc=1
%NoSave
%Mem=1900MB
#P OB98/GEN NMR

erre ene a

0 1
  C       -3.955     210.003    -169.471
  O       -3.247     208.782    -169.398
  H       -3.270     210.843    -169.335
  H       -4.421     210.082    -170.457
  H       -4.737     210.033    -168.708
  P       -2.475     208.491    -168.021
  C       -0.414     210.048    -168.181
  O       -1.706     209.848    -167.627
  C        0.319     211.146    -167.414
  O        0.539     210.682    -166.058
  C        1.684     211.527    -168.015
  O        1.786     212.948    -168.168
  C        2.689     211.078    -166.968
  O        3.821     211.936    -166.885
  C        1.862     211.090    -165.686
  N        6.067     210.003    -163.019
  C        5.680     211.132    -163.655
  N        4.506     211.389    -164.265
  C        3.669     210.342    -164.146
  C        3.915     209.137    -163.509
  C        5.190     208.976    -162.942
  N        5.604     207.807    -162.343
  N        2.819     208.299    -163.602
  C        1.943     208.973    -164.324
  N        2.419     210.205    -164.688
  O       -1.295     207.502    -168.466
  O       -3.321     207.889    -166.950
  H        4.393     211.593    -166.172
  H       -1.403     206.654    -167.995
  H        6.413     211.931    -163.682
  H        0.977     208.601    -164.644
  H        1.794     212.096    -165.255
  H        3.032     210.068    -167.214
  H        1.869     211.043    -168.978
  H       -0.332     212.027    -167.352
  H       -0.507     210.348    -169.232
  H        6.572     207.737    -162.068
  H        4.995     207.005    -162.382
  H        0.146     209.107    -168.132
  P        1.127     213.565    -169.500
  C        2.604     213.525    -171.640
  O        1.747     212.794    -170.767
  O        1.773     215.029    -169.581
  O       -0.363     213.631    -169.460
  H        1.069     215.704    -169.610
  H        2.937     212.886    -172.431
  H        3.450     213.884    -171.091
  H        2.069     214.354    -172.053

 6  7  8  9  10  11  12  13  14  15  25  28  32  33  34  35 0
 6-311+G(2d,p)
 ****
 36  39  40 0
 6-311+G(2d,p)
 ****
 1  2  3  4  5  16  17  18  19  20  21  22  23  24 0
 3-21G
 ****
 26  27  29  30  31  37  38  41  42  43  44  45  46  47  48 0
 3-21G
 ****


