%nproc=1
%NoSave
%Mem=1900MB
#P OB98/GEN NMR

erre ene a

0 1
  C      155.564     267.250     280.808
  O      154.879     268.393     281.283
  H      156.630     267.369     281.023
  H      155.438     267.155     279.728
  H      155.205     266.345     281.308
  P      153.278     268.429     281.180
  C      153.065     268.669     278.628
  O      152.923     269.314     279.883
  C      153.086     269.693     277.496
  O      151.894     270.516     277.584
  C      154.303     270.626     277.534
  O      154.724     270.879     276.192
  C      153.754     271.899     278.145
  O      154.493     273.057     277.752
  C      152.314     271.894     277.642
  N      150.202     276.434     278.345
  C      150.977     275.962     277.301
  N      151.257     276.831     276.311
  N      151.443     274.741     277.242
  C      151.076     273.971     278.295
  C      150.314     274.321     279.384
  C      149.816     275.679     279.449
  O      149.133     276.153     280.351
  N      150.181     273.266     280.256
  C      150.866     272.285     279.694
  N      151.435     272.667     278.507
  O      152.566     268.847     282.426
  O      152.882     266.947     280.735
  H      155.397     272.957     278.120
  H      152.574     266.427     281.502
  H      149.878     277.384     278.345
  H      150.986     271.292     280.105
  H      152.225     272.329     276.633
  H      153.787     271.830     279.241
  H      150.921     277.783     276.283
  H      155.138     270.215     278.113
  H      151.806     276.506     275.524
  H      153.032     269.160     276.538
  H      152.215     267.988     278.489
  H      153.990     268.081     278.622
  P      155.882     269.966     275.559
  C      157.559     271.869     276.026
  O      157.069     270.933     275.071
  O      155.433     268.953     274.558
  O      156.517     269.256     276.853
  H      156.865     268.383     276.590
  H      158.341     272.451     275.586
  H      157.941     271.344     276.877
  H      156.763     272.515     276.333

 6  7  8  9  10  11  12  13  14  15  26  29  33  34 0
 6-311+G(2d,p)
 ****
 36  38  39  40  41 0
 6-311+G(2d,p)
 ****
 1  2  3  4  5  16  17  18  19  20  21  22  23  24  25 0
 3-21G
 ****
 27  28  30  31  32  35  37  42  43  44  45  46  47 0
 3-21G
 ****
 48  49 0
 3-21G
 ****


