%nproc=1
%NoSave
%Mem=1900MB
#P OB98/GEN NMR

erre ene a

0 1
  C        9.275    -133.670     -87.061
  O       10.037    -134.670     -87.711
  P        9.621    -136.199     -87.456
  C        9.471    -137.680     -85.323
  O       10.007    -136.509     -85.932
  C       10.184    -137.970     -84.005
  O       11.560    -138.307     -84.253
  C       10.217    -136.789     -83.048
  O        8.970    -136.635     -82.403
  C       11.352    -137.192     -82.114
  O       10.872    -138.025     -81.047
  C       12.295    -137.983     -83.052
  N       13.518    -137.259     -83.354
  C       14.279    -136.860     -82.248
  O       13.888    -137.108     -81.107
  N       15.438    -136.155     -82.467
  C       15.799    -135.873     -83.679
  N       16.959    -135.178     -83.836
  C       15.016    -136.259     -84.869
  C       13.894    -136.939     -84.636
  O       10.708    -137.018     -88.293
  O        8.222    -136.539     -87.852
  H       10.169    -137.507     -80.603
  H       10.356    -137.886     -88.565
  H       15.362    -135.998     -85.859
  H       13.258    -137.258     -85.453
  H       12.572    -138.940     -82.592
  H       11.826    -136.322     -81.649
  H       10.487    -135.870     -83.582
  H        9.697    -138.834     -83.534
  H       17.471    -134.922     -83.001
  H        9.609    -138.532     -85.994
  H       17.338    -134.929     -84.739
  H        8.398    -137.535     -85.161
  P        8.472    -135.145     -82.089
  C        9.488    -133.230     -80.718
  O        9.434    -134.630     -80.916
  O        7.098    -135.406     -81.305
  O        8.291    -134.228     -83.252
  H        6.642    -134.560     -81.144
  H       10.047    -133.027     -79.803
  H        8.480    -132.818     -80.616
  H       10.001    -132.754     -81.558
  H        9.659    -132.705     -87.318
  H        9.336    -133.807     -86.002
  H        8.254    -133.741     -87.372

 3  4  5  6  7  8  9  10  11  12  13  21  23  27  28  29  30  32 0
 6-311+G(2d,p)
 ****
 34  35 0
 6-311+G(2d,p)
 ****
 1  2  14  15  16  17  18  19  20  22  24  25  26 0
 3-21G
 ****
 31  33  36  37  38  39  40  41  42  43  44  45  46 0
 3-21G
 ****


