%nproc=1
%NoSave
%Mem=1900MB
#P OB98/GEN NMR

erre ene a

0 1
  C      521.147     -76.255     113.260
  O      521.822     -75.341     112.390
  P      523.136     -75.869     111.634
  C      522.667     -74.568     109.413
  O      523.503     -74.743     110.547
  C      523.089     -73.329     108.617
  O      522.505     -72.132     109.226
  C      524.601     -73.119     108.525
  O      524.870     -72.601     107.210
  C      524.865     -72.056     109.574
  O      526.078     -71.353     109.335
  C      523.596     -71.207     109.443
  N      523.354     -70.364     110.613
  C      523.146     -69.007     110.376
  O      523.242     -68.497     109.262
  N      522.875     -68.246     111.481
  C      522.872     -68.688     112.778
  O      522.624     -67.957     113.728
  C      523.209     -70.101     112.969
  C      523.433     -70.862     111.898
  O      522.541     -77.078     110.774
  O      524.238     -76.237     112.571
  H      521.647     -76.902     110.427
  H      526.210     -70.693     110.047
  H      522.695     -67.265     111.332
  H      523.272     -70.472     113.984
  H      523.705     -71.908     112.005
  H      523.655     -70.560     108.559
  H      524.923     -72.515     110.566
  H      525.173     -74.038     108.684
  H      522.661     -73.416     107.607
  H      521.627     -74.445     109.731
  H      522.707     -75.470     108.796
  P      526.038     -73.293     106.347
  C      525.096     -72.381     104.082
  O      526.173     -72.456     104.987
  O      525.285     -74.630     105.874
  O      527.301     -73.574     107.096
  H      524.391     -74.458     105.529
  H      525.299     -71.592     103.355
  H      524.161     -72.152     104.596
  H      524.996     -73.332     103.541
  H      520.296     -75.773     113.693
  H      521.814     -76.566     114.037
  H      520.827     -77.109     112.701

 3  4  5  6  7  8  9  10  11  12  13  24  28  29  30  31  32 0
 6-311+G(2d,p)
 ****
 33  34 0
 6-311+G(2d,p)
 ****
 1  2  14  15  16  17  18  19  20  21  22  23  25  26  27 0
 3-21G
 ****
 35  36  37  38  39  40  41  42  43  44  45 0
 3-21G
 ****


