%nproc=1
%NoSave
%Mem=1900MB
#P OB98/GEN NMR

erre ene a

0 1
  C      -95.237     475.164    -139.358
  O      -95.166     474.290    -140.472
  P      -96.398     473.291    -140.706
  C      -96.142     473.293    -143.299
  O      -96.959     473.616    -142.173
  C      -96.682     473.963    -144.558
  O      -96.668     475.393    -144.399
  C      -95.861     473.677    -145.807
  O      -96.139     472.387    -146.310
  C      -96.313     474.810    -146.725
  O      -97.504     474.445    -147.445
  C      -96.602     475.962    -145.732
  N      -95.607     477.021    -145.794
  C      -95.401     477.580    -147.062
  O      -96.035     477.161    -148.038
  N      -94.456     478.573    -147.200
  C      -93.783     478.961    -146.167
  N      -92.863     479.948    -146.359
  C      -93.949     478.380    -144.822
  C      -94.862     477.419    -144.707
  O      -97.529     473.871    -139.737
  O      -96.097     471.851    -140.434
  H      -97.204     473.857    -148.164
  H      -98.153     473.168    -139.469
  H      -93.352     478.738    -143.989
  H      -95.054     476.936    -143.762
  H      -97.586     476.409    -145.930
  H      -95.558     475.061    -147.475
  H      -94.787     473.786    -145.596
  H      -97.727     473.640    -144.700
  H      -92.763     480.321    -147.300
  H      -96.148     472.212    -143.443
  H      -92.299     480.339    -145.612
  H      -95.118     473.615    -143.096
  P      -94.981     471.289    -146.232
  C      -96.482     469.279    -145.710
  O      -95.531     470.185    -145.203
  O      -93.865     472.040    -145.356
  O      -94.435     470.780    -147.522
  H      -93.051     471.502    -145.321
  H      -96.653     468.497    -144.961
  H      -96.136     468.822    -146.632
  H      -97.434     469.801    -145.891
  H      -94.355     475.769    -139.323
  H      -95.311     474.590    -138.458
  H      -96.098     475.792    -139.452

 3  4  5  6  7  8  9  10  11  12  13  21  23  27  28  29  30  32 0
 6-311+G(2d,p)
 ****
 34  35 0
 6-311+G(2d,p)
 ****
 1  2  14  15  16  17  18  19  20  22  24  25  26 0
 3-21G
 ****
 31  33  36  37  38  39  40  41  42  43  44  45  46 0
 3-21G
 ****


