%nproc=1
%NoSave
%Mem=1900MB
#P OB98/GEN NMR

erre ene a

0 1
  C     -323.705     245.071     -49.654
  O     -323.394     244.088     -48.685
  H     -323.990     244.569     -50.582
  H     -322.824     245.689     -49.845
  H     -324.535     245.698     -49.327
  P     -323.226     244.528     -47.156
  C     -325.515     243.705     -46.294
  O     -324.107     243.509     -46.285
  C     -326.189     242.903     -45.177
  O     -326.397     241.534     -45.640
  C     -325.369     242.828     -43.880
  O     -326.294     242.742     -42.790
  C     -324.629     241.513     -44.055
  O     -324.123     241.038     -42.823
  C     -325.723     240.665     -44.712
  N     -325.179     239.469     -45.368
  C     -325.100     238.315     -44.594
  O     -325.435     238.278     -43.412
  N     -324.586     237.211     -45.215
  C     -324.099     237.167     -46.490
  O     -323.610     236.164     -46.980
  C     -324.159     238.431     -47.244
  C     -324.694     239.507     -46.663
  O     -323.483     245.973     -46.872
  O     -321.728     244.102     -46.783
  H     -324.852     240.723     -42.257
  H     -321.370     244.706     -46.107
  H     -324.534     236.369     -44.672
  H     -323.768     238.431     -48.247
  H     -324.757     240.452     -47.193
  H     -326.459     240.335     -43.962
  H     -323.783     241.633     -44.734
  H     -324.701     243.683     -43.743
  H     -327.187     243.327     -44.994
  H     -325.899     243.379     -47.269
  H     -325.734     244.770     -46.168
  P     -325.899     243.141     -41.289
  C     -327.441     245.172     -40.899
  O     -327.171     243.812     -40.578
  O     -324.643     243.957     -41.185
  O     -325.724     241.742     -40.527
  H     -325.094     241.841     -39.794
  H     -328.308     245.499     -40.364
  H     -327.616     245.262     -41.951
  H     -326.602     245.777     -40.623

 6  7  8  9  10  11  12  13  14  15  16  26  31  32  33  34  35 0
 6-311+G(2d,p)
 ****
 36  37 0
 6-311+G(2d,p)
 ****
 1  2  3  4  5  17  18  19  20  21  22  23  24  25 0
 3-21G
 ****
 27  28  29  30  38  39  40  41  42  43  44  45 0
 3-21G
 ****


