%nproc=1
%NoSave
%Mem=1900MB
#P OB98/GEN NMR

erre ene a

0 1
  C        6.907      46.310     -10.730
  O        5.988      46.748     -11.715
  P        4.504      47.186     -11.317
  C        2.652      48.655     -12.458
  O        4.013      48.300     -12.347
  C        2.414      49.283     -13.838
  O        3.094      50.551     -13.931
  C        2.933      48.386     -14.959
  O        1.891      47.570     -15.469
  C        3.464      49.388     -15.966
  O        2.390      49.915     -16.766
  C        4.032      50.489     -15.039
  N        5.385      50.300     -14.482
  C        6.489      50.787     -15.175
  O        6.413      51.406     -16.232
  N        7.711      50.512     -14.615
  C        7.918      49.855     -13.437
  O        9.000      49.407     -13.074
  C        6.720      49.612     -12.629
  C        5.528      49.819     -13.188
  O        4.721      48.006      -9.961
  O        3.529      46.068     -11.145
  H        2.032      49.176     -17.289
  H        4.532      47.446      -9.185
  H        8.521      50.739     -15.183
  H        6.845      49.221     -11.629
  H        4.624      49.610     -12.621
  H        4.022      51.465     -15.538
  H        4.158      48.920     -16.660
  H        3.769      47.774     -14.599
  H        1.340      49.466     -13.963
  H        2.382      49.361     -11.666
  H        2.021      47.769     -12.332
  P        2.229      46.103     -16.010
  C        0.898      43.918     -16.161
  O        0.993      45.189     -15.552
  O        3.580      45.579     -15.652
  O        2.047      46.245     -17.595
  H        2.919      46.382     -18.018
  H        0.135      43.335     -15.641
  H        1.855      43.390     -16.100
  H        0.604      44.031     -17.208
  H        7.839      46.064     -11.195
  H        6.516      45.445     -10.237
  H        7.061      47.090     -10.014

 3  4  5  6  7  8  9  10  11  12  13  23  28  29  30  31  32 0
 6-311+G(2d,p)
 ****
 33  34 0
 6-311+G(2d,p)
 ****
 1  2  14  15  16  17  18  19  20  21  22  24  25  26  27 0
 3-21G
 ****
 35  36  37  38  39  40  41  42  43  44  45 0
 3-21G
 ****


