%nproc=1
%NoSave
%Mem=1900MB
#P OB98/GEN NMR

erre ene a

0 1
  C       98.193    -178.565    -672.304
  O       97.933    -177.714    -673.426
  P       98.206    -178.345    -674.886
  C      100.383    -177.051    -675.503
  O       99.790    -178.306    -675.153
  C      101.853    -177.204    -675.892
  O      102.583    -177.785    -674.778
  C      102.105    -178.086    -677.117
  O      103.197    -177.534    -677.873
  C      102.592    -179.392    -676.507
  O      103.371    -180.159    -677.427
  C      103.383    -178.863    -675.301
  N      106.107    -182.941    -674.020
  C      106.238    -182.084    -675.109
  N      107.229    -182.372    -675.971
  N      105.472    -181.042    -675.303
  C      104.550    -180.851    -674.336
  C      104.324    -181.623    -673.210
  C      105.150    -182.798    -673.022
  O      105.040    -183.621    -672.109
  N      103.282    -181.116    -672.459
  C      102.898    -180.046    -673.135
  N      103.614    -179.859    -674.280
  O       97.605    -177.249    -675.880
  O       97.562    -179.685    -675.084
  H      103.708    -180.942    -676.937
  H       96.940    -177.652    -676.465
  H      106.714    -183.737    -673.924
  H      102.062    -179.397    -672.843
  H      104.356    -178.452    -675.612
  H      101.738    -180.001    -676.191
  H      107.907    -183.118    -675.845
  H      101.240    -178.233    -677.772
  H      107.386    -181.740    -676.754
  H      102.267    -176.202    -676.063
  H      100.302    -176.368    -674.647
  H       99.810    -176.625    -676.328
  P      102.948    -177.343    -679.453
  C      104.419    -179.358    -680.241
  O      103.116    -178.806    -680.096
  O      104.254    -176.549    -679.924
  O      101.680    -176.605    -679.787
  H      104.058    -176.024    -680.730
  H      105.176    -178.762    -679.692
  H      104.689    -179.356    -681.297
  H      104.414    -180.366    -679.853
  H       97.976    -178.038    -671.399
  H       99.222    -178.857    -672.309
  H       97.575    -179.436    -672.366

 3  4  5  6  7  8  9  10  11  12  23  26  30  31  33  0
 6-311+G(2d,p)
 ****
 35  36  37  38 0
 6-311+G(2d,p)
 ****
 1  2  13  14  15  16  17  18  19  20  21  22  24  25  27  28  29 0
 3-21G
 ****
 32  34  39  40  41  42  43  44  45  46  47  48  49 0
 3-21G
 ****


