%nproc=1
%NoSave
%Mem=1900MB
#P OB98/GEN NMR

erre ene a

0 1
  C       79.101    -107.716     117.260
  O       79.940    -107.592     118.390
  H       79.701    -107.563     116.359
  H       78.313    -106.960     117.289
  H       78.661    -108.715     117.226
  P       79.242    -107.724     119.829
  C       79.694    -105.193     120.206
  O       78.748    -106.253     120.235
  C       79.583    -104.372     121.486
  O       78.277    -103.755     121.562
  C       79.720    -105.188     122.763
  O       81.071    -105.500     123.059
  C       79.096    -104.245     123.777
  O       80.043    -103.271     124.243
  C       77.969    -103.577     122.959
  N       76.653    -104.105     123.303
  C       75.747    -103.182     123.815
  O       76.016    -101.992     123.979
  N       74.523    -103.680     124.173
  C       74.142    -104.988     124.106
  O       73.056    -105.382     124.513
  C       75.136    -105.917     123.542
  C       76.331    -105.442     123.181
  O       80.480    -107.996     120.807
  O       78.199    -108.786     119.930
  H       80.516    -108.941     121.042
  H       79.552    -102.680     124.847
  H       73.858    -103.029     124.558
  H       74.862    -106.963     123.468
  H       77.088    -106.112     122.782
  H       77.956    -102.494     123.144
  H       78.737    -104.782     124.656
  H       79.109    -106.097     122.700
  H       80.338    -103.574     121.454
  H       79.490    -104.545     119.347
  H       80.699    -105.615     120.099
  P       81.383    -106.818     123.919
  C       82.547    -105.400     125.799
  O       81.552    -106.339     125.440
  O       82.873    -107.149     123.445
  O       80.396    -107.916     123.714
  H       83.406    -106.354     123.276
  H       82.497    -105.213     126.851
  H       82.384    -104.487     125.266
  H       83.512    -105.791     125.551

 6  7  8  9  10  11  12  13  14  15  16  27  31  32  33  34  35 0
 6-311+G(2d,p)
 ****
 36  37 0
 6-311+G(2d,p)
 ****
 1  2  3  4  5  17  18  19  20  21  22  23  24  25 0
 3-21G
 ****
 26  28  29  30  38  39  40  41  42  43  44  45 0
 3-21G
 ****


