%nproc=1
%NoSave
%Mem=1900MB
#P OB98/GEN NMR

erre ene a

0 1
  C      -70.525       4.102     283.030
  O      -71.516       4.529     283.947
  H      -70.718       4.573     282.063
  H      -70.568       3.015     282.909
  H      -69.534       4.404     283.380
  P      -71.393       3.963     285.445
  C      -73.519       2.526     285.080
  O      -72.131       2.537     285.388
  C      -74.272       1.607     286.038
  O      -73.909       0.233     285.809
  C      -73.993       1.871     287.512
  O      -74.762       2.966     287.984
  C      -74.448       0.555     288.127
  O      -75.883       0.546     288.247
  C      -74.004      -0.478     287.074
  N      -71.398      -4.896     286.826
  C      -72.703      -4.612     286.630
  N      -73.333      -3.425     286.754
  C      -72.472      -2.462     287.127
  C      -71.111      -2.602     287.363
  C      -70.571      -3.888     287.192
  N      -69.233      -4.172     287.383
  N      -70.552      -1.396     287.732
  C      -71.546      -0.533     287.663
  N      -72.735      -1.136     287.335
  O      -71.829       4.892     286.525
  O      -69.846       3.546     285.488
  H      -76.255       0.559     287.344
  H      -69.572       3.159     284.636
  H      -73.324      -5.450     286.327
  H      -71.455       0.536     287.821
  H      -74.749      -1.275     286.949
  H      -74.044       0.404     289.131
  H      -72.921       2.002     287.701
  H      -75.344       1.700     285.818
  H      -73.677       2.198     284.046
  H      -68.963      -5.143     287.407
  H      -68.646      -3.450     287.775
  H      -73.885       3.555     285.176
  P      -74.228       3.880     289.189
  C      -75.558       2.626     290.998
  O      -74.267       2.965     290.509
  O      -74.908       5.199     289.330
  O      -72.663       4.047     288.907
  H      -72.366       4.949     289.138
  H      -75.460       2.019     291.874
  H      -76.093       2.084     290.246
  H      -76.093       3.520     291.242

 6  7  8  9  10  11  12  13  14  15  25  28  32  33  34  35 0
 6-311+G(2d,p)
 ****
 36  39  40 0
 6-311+G(2d,p)
 ****
 1  2  3  4  5  16  17  18  19  20  21  22  23  24 0
 3-21G
 ****
 26  27  29  30  31  37  38  41  42  43  44  45  46  47 0
 3-21G
 ****
 48 0
 3-21G
 ****


