%nproc=1
%NoSave
%Mem=1900MB
#P OB98/GEN NMR

erre ene a

0 1
  C      -40.792     -59.246    -105.511
  O      -39.799     -60.066    -104.918
  P      -39.037     -61.131    -105.839
  C      -39.481     -63.294    -104.469
  O      -38.536     -62.324    -104.891
  C      -38.767     -64.536    -103.930
  O      -37.947     -65.119    -104.989
  C      -37.839     -64.255    -102.739
  O      -37.874     -65.408    -101.883
  C      -36.479     -64.153    -103.399
  O      -35.400     -64.335    -102.493
  C      -36.612     -65.247    -104.463
  N      -35.604     -65.142    -105.517
  C      -34.329     -65.622    -105.232
  O      -34.004     -66.121    -104.154
  N      -33.395     -65.452    -106.219
  C      -33.581     -64.787    -107.395
  O      -32.670     -64.569    -108.187
  C      -34.946     -64.303    -107.642
  C      -35.881     -64.500    -106.709
  O      -37.686     -60.370    -106.236
  O      -39.801     -61.575    -107.040
  H      -35.484     -65.227    -102.113
  H      -37.756     -59.999    -107.135
  H      -32.468     -65.804    -106.034
  H      -35.132     -63.788    -108.577
  H      -36.890     -64.136    -106.856
  H      -36.545     -66.239    -103.995
  H      -36.369     -63.163    -103.856
  H      -38.108     -63.355    -102.178
  H      -39.522     -65.284    -103.657
  H      -40.105     -63.580    -105.318
  H      -40.136     -62.864    -103.703
  P      -37.706     -65.175    -100.301
  C      -35.120     -65.463    -100.040
  O      -36.412     -66.003     -99.851
  O      -38.933     -66.042     -99.743
  O      -37.755     -63.738     -99.898
  H      -39.021     -66.899    -100.191
  H      -35.116     -64.376     -99.920
  H      -34.767     -65.715    -101.043
  H      -34.441     -65.901     -99.305
  H      -41.204     -58.593    -104.770
  H      -41.568     -59.862    -105.916
  H      -40.353     -58.664    -106.295

 3  4  5  6  7  8  9  10  11  12  13  23  28  29  30  31  32 0
 6-311+G(2d,p)
 ****
 33  34 0
 6-311+G(2d,p)
 ****
 1  2  14  15  16  17  18  19  20  21  22  24  25  26 0
 3-21G
 ****
 27  35  36  37  38  39  40  41  42  43  44  45 0
 3-21G
 ****


