%nproc=1
%NoSave
%Mem=1900MB
#P OB98/GEN NMR

erre ene a

0 1
  C      -42.603      42.768    -122.848
  O      -42.578      41.906    -123.969
  H      -41.854      42.456    -122.116
  H      -42.371      43.782    -123.180
  H      -43.597      42.764    -122.390
  P      -42.925      40.364    -123.696
  C      -40.409      39.926    -123.241
  O      -41.742      39.797    -122.772
  C      -39.584      38.713    -122.823
  O      -39.479      38.655    -121.385
  C      -40.167      37.369    -123.246
  O      -39.884      37.075    -124.605
  C      -39.425      36.430    -122.306
  O      -38.097      36.192    -122.807
  C      -39.361      37.257    -121.013
  N      -40.853      34.007    -117.355
  C      -39.705      34.107    -118.059
  N      -39.374      35.012    -119.002
  C      -40.370      35.895    -119.182
  C      -41.588      35.936    -118.524
  C      -41.823      34.930    -117.573
  N      -43.031      34.798    -116.906
  N      -42.361      36.981    -118.992
  C      -41.628      37.548    -119.926
  N      -40.415      36.931    -120.072
  O      -42.657      39.682    -125.122
  O      -44.310      40.101    -123.208
  H      -37.679      37.067    -122.920
  H      -43.504      39.595    -125.599
  H      -38.953      33.357    -117.839
  H      -41.933      38.397    -120.521
  H      -38.403      37.140    -120.495
  H      -39.911      35.456    -122.201
  H      -41.241      37.312    -123.034
  H      -38.570      38.841    -123.224
  H      -39.959      40.831    -122.819
  H      -43.244      33.841    -116.641
  H      -43.788      35.342    -117.302
  H      -40.428      40.014    -124.332
  P      -40.963      36.215    -125.423
  C      -39.760      33.972    -124.961
  O      -40.944      34.739    -124.790
  O      -40.260      36.027    -126.849
  O      -42.307      36.843    -125.561
  H      -40.849      36.361    -127.553
  H      -39.883      33.017    -124.494
  H      -38.935      34.485    -124.512
  H      -39.571      33.836    -126.005

 6  7  8  9  10  11  12  13  14  15  25  28  32  33  34  35 0
 6-311+G(2d,p)
 ****
 36  39  40 0
 6-311+G(2d,p)
 ****
 1  2  3  4  5  16  17  18  19  20  21  22  23  24 0
 3-21G
 ****
 26  27  29  30  31  37  38  41  42  43  44  45  46  47  48 0
 3-21G
 ****


