%nproc=1
%NoSave
%Mem=1900MB
#P OB98/GEN NMR

erre ene a

0 1
  C     -891.492    -224.923    -209.696
  O     -892.626    -224.845    -208.856
  H     -891.408    -223.985    -210.259
  H     -891.590    -225.752    -210.401
  H     -890.585    -225.053    -209.089
  P     -892.946    -226.141    -207.965
  C     -894.221    -227.040    -210.022
  O     -893.227    -227.302    -209.040
  C     -893.960    -227.856    -211.288
  O     -894.086    -229.264    -210.965
  C     -894.949    -227.551    -212.425
  O     -894.249    -227.583    -213.672
  C     -895.935    -228.709    -212.359
  O     -896.563    -228.954    -213.611
  C     -895.036    -229.847    -211.868
  N     -898.290    -233.720    -212.582
  C     -897.581    -232.960    -213.447
  N     -896.725    -231.953    -213.168
  C     -896.594    -231.796    -211.839
  C     -897.251    -232.490    -210.835
  C     -898.142    -233.490    -211.253
  N     -898.880    -234.253    -210.378
  N     -896.874    -232.006    -209.587
  C     -896.006    -231.048    -209.846
  N     -895.810    -230.874    -211.188
  O     -893.999    -225.963    -206.926
  O     -891.496    -226.518    -207.417
  H     -895.881    -229.237    -214.254
  H     -890.819    -226.458    -208.112
  H     -897.733    -233.182    -214.502
  H     -895.499    -230.453    -209.093
  H     -894.490    -230.337    -212.680
  H     -896.713    -228.479    -211.619
  H     -895.444    -226.587    -212.299
  H     -892.918    -227.692    -211.610
  H     -894.229    -225.971    -210.267
  H     -899.496    -234.968    -210.768
  H     -898.780    -234.116    -209.383
  H     -895.193    -227.296    -209.595
  P     -893.375    -226.304    -214.093
  C     -895.126    -224.762    -215.227
  O     -894.325    -225.009    -214.064
  O     -892.534    -226.461    -215.312
  O     -892.452    -226.074    -212.791
  H     -891.568    -225.792    -213.079
  H     -895.707    -223.876    -215.078
  H     -895.779    -225.593    -215.394
  H     -894.490    -224.632    -216.077

 6  7  8  9  10  11  12  13  14  15  25  28  32  33  34  35 0
 6-311+G(2d,p)
 ****
 36  39  40 0
 6-311+G(2d,p)
 ****
 1  2  3  4  5  16  17  18  19  20  21  22  23  24 0
 3-21G
 ****
 26  27  29  30  31  37  38  41  42  43  44  45  46  47 0
 3-21G
 ****
 48 0
 3-21G
 ****


