%nproc=1
%NoSave
%Mem=1900MB
#P OB98/GEN NMR

erre ene a

0 1
  C      244.734    -291.932    -361.931
  O      245.929    -292.652    -361.707
  H      243.967    -292.303    -361.248
  H      244.400    -292.096    -362.958
  H      244.880    -290.863    -361.753
  P      247.284    -292.030    -362.299
  C      248.133    -291.245    -359.975
  O      248.364    -292.066    -361.110
  C      249.457    -290.720    -359.418
  O      249.165    -289.690    -358.424
  C      250.324    -291.794    -358.739
  O      251.702    -291.515    -359.012
  C      250.073    -291.543    -357.263
  O      251.129    -292.033    -356.443
  C      249.933    -290.024    -357.253
  N      250.832    -288.984    -352.427
  C      251.702    -289.250    -353.465
  N      253.017    -289.305    -353.165
  N      251.316    -289.446    -354.698
  C      249.974    -289.340    -354.866
  C      249.010    -289.090    -353.921
  C      249.448    -288.891    -352.556
  O      248.725    -288.672    -351.589
  N      247.757    -289.125    -354.480
  C      247.967    -289.421    -355.752
  N      249.297    -289.560    -356.033
  O      246.924    -290.474    -362.434
  O      247.740    -292.608    -363.596
  H      250.894    -291.866    -355.510
  H      246.617    -290.283    -363.338
  H      251.179    -288.856    -351.493
  H      247.197    -289.560    -356.498
  H      250.903    -289.513    -357.322
  H      249.139    -292.027    -356.953
  H      253.395    -289.135    -352.245
  H      250.085    -292.816    -359.046
  H      253.670    -289.461    -353.924
  H      250.007    -290.231    -360.230
  H      247.630    -291.836    -359.202
  H      247.481    -290.413    -360.259
  P      252.507    -292.535    -359.951
  C      251.509    -291.802    -362.240
  O      252.657    -291.883    -361.410
  O      251.453    -293.717    -360.185
  O      253.772    -293.046    -359.346
  H      251.918    -294.569    -360.247
  H      251.774    -291.346    -363.171
  H      250.759    -291.213    -361.755
  H      251.129    -292.786    -362.420

 6  7  8  9  10  11  12  13  14  15  26  29  33  34 0
 6-311+G(2d,p)
 ****
 36  38  39  40  41 0
 6-311+G(2d,p)
 ****
 1  2  3  4  5  16  17  18  19  20  21  22  23  24  25 0
 3-21G
 ****
 27  28  30  31  32  35  37  42  43  44  45  46  47 0
 3-21G
 ****
 48  49 0
 3-21G
 ****


