%nproc=1
%NoSave
%Mem=1900MB
#P OB98/GEN NMR

erre ene a

0 1
  C      -23.191     710.861     112.458
  O      -23.921     710.454     113.630
  P      -24.901     709.190     113.452
  C      -26.947     709.568     115.025
  O      -25.665     708.976     114.842
  C      -27.483     709.234     116.421
  O      -27.354     707.824     116.727
  C      -26.751     709.960     117.540
  O      -27.136     711.329     117.603
  C      -27.173     709.139     118.749
  O      -28.504     709.504     119.177
  C      -27.208     707.714     118.173
  N      -24.738     705.024     121.766
  C      -25.934     705.648     121.772
  N      -26.511     706.363     120.783
  C      -25.750     706.345     119.679
  C      -24.513     705.739     119.502
  C      -24.004     705.053     120.631
  N      -22.778     704.403     120.616
  N      -24.026     705.930     118.235
  C      -24.943     706.685     117.643
  N      -25.997     706.945     118.461
  O      -23.895     707.947     113.355
  O      -25.790     709.285     112.254
  H      -29.128     709.130     118.518
  H      -23.883     707.606     112.434
  H      -26.491     705.618     122.706
  H      -24.885     707.048     116.625
  H      -28.058     707.133     118.543
  H      -26.520     709.255     119.609
  H      -25.661     709.895     117.400
  H      -28.554     709.499     116.429
  H      -27.650     709.187     114.263
  H      -22.447     703.999     121.485
  H      -22.174     704.493     119.810
  H      -26.852     710.637     114.884
  P      -25.968     712.420     117.760
  C      -27.218     713.839     119.517
  O      -26.774     713.762     118.189
  O      -25.566     712.699     116.251
  O      -24.857     712.033     118.689
  H      -26.359     712.820     115.683
  H      -27.706     714.807     119.672
  H      -26.369     713.771     120.203
  H      -27.934     713.039     119.727
  H      -22.577     711.705     112.695
  H      -23.880     711.128     111.684
  H      -22.574     710.053     112.124

 3  4  5  6  7  8  9  10  11  12  22  25  29  30  31  32 0
 6-311+G(2d,p)
 ****
 33  36  37 0
 6-311+G(2d,p)
 ****
 1  2  13  14  15  16  17  18  19  20  21  23  24  26 0
 3-21G
 ****
 27  28  34  35  38  39  40  41  42  43  44  45  46  47  48 0
 3-21G
 ****


