%nproc=1
%NoSave
%Mem=1900MB
#P OB98/GEN NMR

erre ene a

0 1
  C        8.373      63.553      14.839
  O        7.897      64.709      15.499
  H        8.022      62.670      15.379
  H        9.466      63.547      14.825
  H        7.989      63.519      13.816
  P        8.396      66.119      14.914
  C        6.159      66.329      13.586
  O        7.577      66.265      13.540
  C        5.640      67.115      12.387
  O        6.222      68.436      12.354
  C        5.977      66.488      11.039
  O        5.126      65.404      10.706
  C        5.761      67.679      10.123
  O        4.350      67.891       9.933
  C        6.386      68.817      10.961
  N        7.798      69.048      10.654
  C        8.077      69.760       9.481
  O        7.166      70.152       8.755
  N        9.390      69.982       9.139
  C       10.340      69.544       9.904
  N       11.621      69.781       9.510
  C       10.090      68.806      11.156
  C        8.814      68.595      11.465
  O        9.881      65.811      14.402
  O        8.292      67.285      15.837
  H        4.254      68.728       9.442
  H       10.233      66.591      13.908
  H       10.916      68.451      11.755
  H        8.554      68.057      12.370
  H        5.839      69.756      10.815
  H        6.202      67.545       9.134
  H        7.029      66.191      10.983
  H        4.556      67.239      12.509
  H       11.761      70.234       8.617
  H        5.867      66.823      14.518
  H       12.416      69.326       9.941
  H        5.737      65.319      13.569
  P        5.603      64.416       9.533
  C        7.180      63.375      11.314
  O        7.025      63.818       9.973
  O        5.980      65.420       8.347
  O        4.587      63.403       9.109
  H        5.711      65.060       7.481
  H        8.174      63.006      11.455
  H        6.477      62.593      11.515
  H        7.005      64.192      11.982

 6  7  8  9  10  11  12  13  14  15  16  26  30  31  32  33  35 0
 6-311+G(2d,p)
 ****
 37  38 0
 6-311+G(2d,p)
 ****
 1  2  3  4  5  17  18  19  20  21  22  23  24  25 0
 3-21G
 ****
 27  28  29  34  36  39  40  41  42  43  44  45  46 0
 3-21G
 ****


