%nproc=1
%NoSave
%Mem=1900MB
#P OB98/GEN NMR

erre ene a

0 1
  C      273.193     980.712    -899.381
  O      272.793     980.748    -898.001
  P      272.018     979.471    -897.411
  C      273.942     978.556    -895.891
  O      272.648     979.118    -895.971
  C      274.529     978.718    -894.481
  O      275.011     980.079    -894.241
  C      273.510     978.428    -893.341
  O      273.380     977.039    -893.091
  C      274.171     979.157    -892.191
  O      275.209     978.297    -891.631
  C      274.779     980.408    -892.841
  N      273.289     984.172    -889.821
  C      274.211     983.220    -889.621
  N      274.875     983.196    -888.431
  N      274.506     982.241    -890.481
  C      273.811     982.353    -891.641
  C      272.864     983.322    -891.991
  C      272.534     984.345    -890.991
  O      271.712     985.240    -891.121
  N      272.364     983.124    -893.261
  C      273.029     982.044    -893.701
  N      273.894     981.560    -892.741
  O      272.601     978.279    -898.321
  O      270.508     979.530    -897.491
  H      275.787     978.862    -891.071
  H      271.948     977.551    -898.391
  H      273.092     984.875    -889.131
  H      272.889     981.621    -894.671
  H      275.746     980.659    -892.391
  H      273.456     979.333    -891.361
  H      274.698     983.921    -887.711
  H      272.542     978.899    -893.561
  H      275.557     982.502    -888.251
  H      275.378     978.034    -894.381
  H      274.625     979.042    -896.621
  H      273.889     977.495    -896.181
  P      272.079     976.536    -892.321
  C      271.147     974.791    -894.021
  O      271.849     975.010    -892.801
  O      270.894     977.341    -893.021
  O      272.112     976.728    -890.831
  H      270.200     977.534    -892.381
  H      271.214     973.702    -894.271
  H      271.578     975.374    -894.841
  H      270.075     975.051    -893.911
  H      273.694     981.624    -899.631
  H      272.328     980.600    -900.000
  H      273.855     979.886    -899.539

 3  4  5  6  7  8  9  10  11  12  23  26  30  31 0
 6-311+G(2d,p)
 ****
 33  35  36  37  38 0
 6-311+G(2d,p)
 ****
 1  2  13  14  15  16  17  18  19  20  21  22  24  25 0
 3-21G
 ****
 27  28  29  32  34  39  40  41  42  43  44  45  46  47  48  49 0
 3-21G
 ****


