%nproc=1
%NoSave
%Mem=1900MB
#P OB98/GEN NMR

erre ene a

0 1
  C      928.999       9.887    -416.216
  O      929.627      11.176    -416.044
  P      928.730      12.432    -415.598
  C      929.632      12.578    -413.142
  O      928.525      12.375    -414.006
  C      929.145      12.800    -411.709
  O      928.514      11.616    -411.189
  C      930.248      13.133    -410.713
  O      930.690      14.483    -410.833
  C      929.561      12.838    -409.390
  O      928.755      13.952    -408.963
  C      928.669      11.633    -409.758
  N      929.207      10.367    -409.257
  C      928.863      10.012    -407.961
  O      928.191      10.738    -407.215
  N      929.351       8.814    -407.518
  C      930.183       7.976    -408.211
  O      930.599       6.926    -407.748
  C      930.580       8.442    -409.546
  C      930.089       9.602    -409.995
  O      927.281      12.016    -416.138
  O      929.140      13.756    -416.155
  H      928.353      13.693    -408.116
  H      926.761      12.819    -416.333
  H      929.089       8.522    -406.582
  H      931.259       7.819    -410.123
  H      930.370       9.948    -410.983
  H      927.662      11.766    -409.342
  H      930.268      12.635    -408.585
  H      931.085      12.438    -410.848
  H      928.390      13.607    -411.724
  H      930.192      13.457    -413.477
  H      930.291      11.699    -413.195
  P      932.271      14.734    -410.701
  C      932.985      14.040    -413.117
  O      932.943      13.727    -411.742
  O      932.559      14.106    -409.257
  O      932.642      16.179    -410.831
  H      931.987      13.334    -409.067
  H      933.068      15.122    -413.290
  H      932.065      13.669    -413.591
  H      933.846      13.544    -413.578
  H      929.735       9.169    -416.512
  H      928.244       9.956    -416.971
  H      928.553       9.581    -415.292

 3  4  5  6  7  8  9  10  11  12  13  23  28  29  30  31  32 0
 6-311+G(2d,p)
 ****
 33  34 0
 6-311+G(2d,p)
 ****
 1  2  14  15  16  17  18  19  20  21  22  24  25  26 0
 3-21G
 ****
 27  35  36  37  38  39  40  41  42  43  44  45 0
 3-21G
 ****


