%nproc=1
%NoSave
%Mem=1900MB
#P OB98/GEN NMR

erre ene a

0 1
  C     -136.347     666.178     362.909
  O     -135.834     667.228     363.699
  H     -136.863     666.608     362.044
  H     -137.066     665.592     363.491
  H     -135.544     665.526     362.554
  P     -134.863     666.811     364.911
  C     -135.090     669.092     366.131
  O     -135.311     667.689     366.181
  C     -136.223     669.830     366.841
  O     -137.472     669.648     366.129
  C     -136.478     669.368     368.275
  O     -135.581     669.968     369.197
  C     -137.904     669.856     368.483
  O     -137.892     671.277     368.731
  C     -138.538     669.560     367.118
  N     -142.442     666.701     368.642
  C     -142.128     668.005     368.951
  N     -142.963     668.644     369.803
  N     -141.081     668.641     368.484
  C     -140.320     667.871     367.654
  C     -140.537     666.565     367.269
  C     -141.706     665.887     367.785
  O     -142.045     664.734     367.522
  N     -139.568     666.138     366.401
  C     -138.752     667.161     366.291
  N     -139.167     668.252     367.033
  O     -133.455     667.460     364.497
  O     -134.737     665.345     365.154
  H     -137.450     671.410     369.593
  H     -132.738     666.862     364.786
  H     -143.259     666.262     369.040
  H     -137.855     667.185     365.679
  H     -139.299     670.297     366.846
  H     -138.385     669.380     369.340
  H     -143.759     668.204     370.246
  H     -136.458     668.264     368.347
  H     -142.766     669.616     370.024
  H     -135.995     670.905     366.824
  H     -135.047     669.416     365.089
  H     -134.129     669.316     366.609
  P     -134.605     668.999     370.036
  C     -135.078     670.396     372.184
  O     -135.101     669.107     371.557
  O     -133.221     669.795     370.037
  O     -134.463     667.618     369.482
  H     -132.471     669.173     370.186
  H     -135.435     670.310     373.189
  H     -135.706     671.069     371.639
  H     -134.076     670.771     372.192

 6  7  8  9  10  11  12  13  14  15  26  29  33  34 0
 6-311+G(2d,p)
 ****
 36  38  39  40  41 0
 6-311+G(2d,p)
 ****
 1  2  3  4  5  16  17  18  19  20  21  22  23  24  25 0
 3-21G
 ****
 27  28  30  31  32  35  37  42  43  44  45  46  47 0
 3-21G
 ****
 48  49 0
 3-21G
 ****


