%nproc=1
%NoSave
%Mem=1900MB
#P OB98/GEN NMR

erre ene a

0 1
  C     1097.204    -897.290    -521.032
  O     1096.805    -897.110    -519.681
  P     1095.510    -896.190    -519.409
  C     1096.986    -894.940    -517.613
  O     1095.736    -895.530    -517.966
  C     1097.020    -894.630    -516.120
  O     1096.122    -893.520    -515.806
  C     1096.543    -895.780    -515.226
  O     1097.538    -896.790    -515.099
  C     1096.210    -895.040    -513.934
  O     1097.421    -894.780    -513.176
  C     1095.619    -893.730    -514.456
  N     1094.163    -893.700    -514.441
  C     1093.564    -893.170    -513.292
  O     1094.237    -892.770    -512.326
  N     1092.192    -893.180    -513.265
  C     1091.385    -893.690    -514.234
  O     1090.155    -893.710    -514.135
  C     1092.068    -894.260    -515.411
  C     1093.398    -894.240    -515.482
  O     1094.387    -897.300    -519.180
  O     1095.237    -895.220    -520.529
  H     1094.760    -898.140    -518.841
  H     1097.814    -895.680    -512.972
  H     1091.763    -892.790    -512.461
  H     1091.437    -894.680    -516.188
  H     1093.908    -894.650    -516.336
  H     1095.997    -892.880    -513.878
  H     1095.537    -895.610    -513.283
  H     1095.633    -896.230    -515.635
  H     1098.031    -894.330    -515.841
  H     1097.103    -894.010    -518.167
  H     1097.806    -895.630    -517.885
  P     1097.201    -898.240    -515.681
  C     1097.968    -899.040    -513.320
  O     1097.886    -899.300    -514.695
  O     1098.113    -898.290    -517.001
  O     1095.725    -898.460    -515.931
  H     1098.984    -897.910    -516.857
  H     1098.136    -900.000    -512.785
  H     1097.077    -898.590    -512.936
  H     1098.829    -898.390    -513.121
  H     1098.070    -897.917    -521.068
  H     1097.434    -896.339    -521.466
  H     1096.408    -897.749    -521.581

 3  4  5  6  7  8  9  10  11  12  13  24  28  29  30  31  32 0
 6-311+G(2d,p)
 ****
 33  34 0
 6-311+G(2d,p)
 ****
 1  2  14  15  16  17  18  19  20  21  22  23  25  26  27 0
 3-21G
 ****
 35  36  37  38  39  40  41  42  43  44  45 0
 3-21G
 ****


