%nproc=1
%NoSave
%Mem=1900MB
#P OB98/GEN NMR

erre ene a

0 1
  C      -59.844    -479.284    -307.450
  O      -59.938    -479.933    -306.199
  H      -59.107    -478.481    -307.374
  H      -60.808    -478.847    -307.719
  H      -59.521    -479.981    -308.228
  P      -60.815    -481.267    -306.085
  C      -59.063    -482.367    -304.539
  O      -59.801    -482.461    -305.749
  C      -58.007    -483.474    -304.461
  O      -58.689    -484.764    -304.405
  C      -57.046    -483.520    -305.668
  O      -55.795    -484.030    -305.187
  C      -57.753    -484.532    -306.553
  O      -56.951    -484.969    -307.620
  C      -58.157    -485.559    -305.487
  N      -59.130    -486.556    -305.916
  C      -58.738    -487.891    -305.896
  O      -57.633    -488.289    -305.534
  N      -59.681    -488.795    -306.315
  C      -60.945    -488.499    -306.730
  O      -61.757    -489.353    -307.066
  C      -61.300    -487.073    -306.738
  C      -60.391    -486.181    -306.333
  O      -61.747    -481.531    -307.221
  O      -61.609    -481.081    -304.706
  H      -62.526    -480.805    -304.892
  H      -56.900    -484.255    -308.294
  H      -59.416    -489.765    -306.302
  H      -62.291    -486.802    -307.072
  H      -60.626    -485.121    -306.318
  H      -57.267    -486.068    -305.105
  H      -58.633    -484.075    -307.010
  H      -56.892    -482.543    -306.129
  H      -57.452    -483.366    -303.519
  H      -59.764    -482.466    -303.704
  H      -58.583    -481.384    -304.488
  P      -54.504    -483.108    -304.936
  C      -53.237    -484.398    -303.083
  O      -54.059    -483.281    -303.401
  O      -54.685    -481.683    -305.351
  O      -53.321    -483.803    -305.761
  H      -52.656    -483.134    -306.005
  H      -53.017    -484.392    -302.036
  H      -52.325    -484.340    -303.639
  H      -53.751    -485.302    -303.335

 6  7  8  9  10  11  12  13  14  15  16  27  31  32  33  34  35 0
 6-311+G(2d,p)
 ****
 36  37 0
 6-311+G(2d,p)
 ****
 1  2  3  4  5  17  18  19  20  21  22  23  24  25 0
 3-21G
 ****
 26  28  29  30  38  39  40  41  42  43  44  45 0
 3-21G
 ****


