%nproc=1
%NoSave
%Mem=1900MB
#P OB98/GEN NMR

erre ene a

0 1
  C      342.109    -220.311     117.225
  O      343.060    -221.282     117.622
  P      344.496    -220.764     118.107
  C      345.688    -221.664     115.968
  O      345.392    -220.546     116.795
  C      346.462    -221.201     114.730
  O      345.687    -220.232     113.987
  C      347.774    -220.502     115.061
  O      348.794    -221.437     115.379
  C      348.040    -219.725     113.779
  O      348.666    -220.561     112.790
  C      346.613    -219.338     113.342
  N      346.305    -217.938     113.622
  C      346.729    -217.013     112.669
  O      347.352    -217.340     111.657
  N      346.449    -215.703     112.939
  C      345.851    -215.227     114.069
  O      345.678    -214.032     114.277
  C      345.447    -216.244     115.054
  C      345.693    -217.531     114.792
  O      345.148    -222.049     118.806
  O      344.455    -219.592     119.029
  H      348.648    -220.064     111.948
  H      345.695    -221.771     119.567
  H      346.728    -215.024     112.250
  H      344.966    -215.902     115.963
  H      345.418    -218.293     115.510
  H      346.494    -219.505     112.264
  H      348.707    -218.871     113.944
  H      347.628    -219.794     115.885
  H      346.637    -222.068     114.086
  H      344.755    -222.144     115.663
  H      346.279    -222.385     116.542
  P      349.642    -221.166     116.713
  C      351.609    -220.162     115.310
  O      350.654    -219.974     116.328
  O      350.551    -222.482     116.766
  O      348.786    -220.946     117.915
  H      350.769    -222.814     115.876
  H      351.221    -220.795     114.504
  H      352.504    -220.631     115.734
  H      351.881    -219.187     114.899
  H      341.204    -220.799     116.929
  H      342.497    -219.748     116.402
  H      341.908    -219.653     118.044

 3  4  5  6  7  8  9  10  11  12  13  23  28  29  30  31  32 0
 6-311+G(2d,p)
 ****
 33  34 0
 6-311+G(2d,p)
 ****
 1  2  14  15  16  17  18  19  20  21  22  24  25  26 0
 3-21G
 ****
 27  35  36  37  38  39  40  41  42  43  44  45 0
 3-21G
 ****


