%nproc=1
%NoSave
%Mem=1900MB
#P OB98/GEN NMR

erre ene a

0 1
  C     -540.466     250.137    -114.426
  O     -540.722     251.206    -113.543
  H     -540.437     249.209    -113.848
  H     -539.501     250.266    -114.921
  H     -541.262     250.060    -115.172
  P     -540.629     252.711    -114.094
  C     -538.361     253.258    -113.025
  O     -539.048     253.001    -114.245
  C     -536.890     253.593    -113.273
  O     -536.794     254.780    -114.105
  C     -536.091     253.861    -111.993
  O     -534.853     253.146    -112.047
  C     -535.839     255.361    -112.031
  O     -534.695     255.733    -111.270
  C     -535.756     255.605    -113.541
  N     -535.927     257.008    -113.900
  C     -534.779     257.803    -113.876
  O     -533.701     257.323    -113.530
  N     -534.882     259.131    -114.206
  C     -536.044     259.634    -114.488
  N     -536.083     260.959    -114.797
  C     -537.289     258.843    -114.479
  C     -537.160     257.550    -114.189
  O     -541.377     253.720    -113.288
  O     -541.121     252.614    -115.614
  H     -533.934     255.184    -111.564
  H     -541.398     253.511    -115.927
  H     -538.235     259.311    -114.711
  H     -538.022     256.890    -114.168
  H     -534.791     255.262    -113.940
  H     -536.709     255.888    -111.616
  H     -536.617     253.568    -111.086
  H     -536.445     252.777    -113.855
  H     -535.205     261.465    -114.793
  H     -538.448     252.378    -112.381
  H     -536.928     261.459    -115.025
  H     -538.843     254.112    -112.536
  P     -534.455     252.323    -110.727
  C     -532.813     253.868    -109.452
  O     -534.142     253.378    -109.559
  O     -533.019     251.718    -111.095
  O     -535.433     251.251    -110.373
  H     -533.105     250.785    -111.361
  H     -532.752     254.557    -108.636
  H     -532.542     254.365    -110.360
  H     -532.144     253.051    -109.279

 6  7  8  9  10  11  12  13  14  15  16  26  30  31  32  33  35 0
 6-311+G(2d,p)
 ****
 37  38 0
 6-311+G(2d,p)
 ****
 1  2  3  4  5  17  18  19  20  21  22  23  24  25 0
 3-21G
 ****
 27  28  29  34  36  39  40  41  42  43  44  45  46 0
 3-21G
 ****


