%nproc=1
%NoSave
%Mem=1900MB
#P OB98/GEN NMR

erre ene a

0 1
  C     -624.869     175.929    -853.585
  O     -624.012     177.048    -853.503
  H     -624.428     175.110    -853.000
  H     -624.961     175.601    -854.625
  H     -625.856     176.162    -853.171
  P     -624.506     178.447    -854.120
  C     -624.006     180.027    -852.135
  O     -623.619     179.596    -853.440
  C     -622.785     180.461    -851.325
  O     -622.095     179.259    -850.840
  C     -621.740     181.277    -852.117
  O     -621.098     182.160    -851.182
  C     -620.799     180.183    -852.584
  O     -619.599     180.678    -853.119
  C     -620.721     179.350    -851.289
  N     -620.130     178.026    -851.431
  C     -619.158     177.647    -850.504
  O     -618.766     178.359    -849.578
  N     -618.615     176.392    -850.687
  C     -618.965     175.509    -851.658
  O     -618.482     174.393    -851.746
  C     -620.000     175.958    -852.611
  C     -620.527     177.176    -852.448
  O     -625.977     178.680    -854.089
  O     -623.945     178.412    -855.622
  H     -624.668     178.185    -856.237
  H     -619.788     181.114    -853.975
  H     -617.927     176.106    -850.021
  H     -620.275     175.286    -853.405
  H     -621.285     177.543    -853.130
  H     -620.174     179.911    -850.535
  H     -621.268     179.600    -853.391
  H     -622.194     181.868    -852.928
  H     -623.125     181.003    -850.435
  H     -624.513     179.199    -851.628
  H     -624.708     180.869    -852.232
  P     -620.120     183.361    -851.627
  C     -621.285     185.232    -850.263
  O     -620.106     184.451    -850.442
  O     -620.440     183.937    -852.966
  O     -618.647     182.732    -851.606
  H     -618.074     183.225    -852.223
  H     -621.142     185.912    -849.449
  H     -622.111     184.587    -850.049
  H     -621.486     185.784    -851.157

 6  7  8  9  10  11  12  13  14  15  16  27  31  32  33  34  35 0
 6-311+G(2d,p)
 ****
 36  37 0
 6-311+G(2d,p)
 ****
 1  2  3  4  5  17  18  19  20  21  22  23  24  25 0
 3-21G
 ****
 26  28  29  30  38  39  40  41  42  43  44  45 0
 3-21G
 ****


