%nproc=1
%NoSave
%Mem=1900MB
#P OB98/GEN NMR

erre ene a

0 1
  C       35.885      72.343     237.596
  O       34.911      73.352     237.813
  P       35.450      74.855     237.996
  C       34.211      75.196     240.269
  O       35.442      75.147     239.570
  C       34.443      75.707     241.693
  O       35.350      74.834     242.395
  C       35.052      77.100     241.763
  O       34.050      78.089     241.599
  C       35.682      77.087     243.150
  O       34.695      77.351     244.166
  C       36.204      75.645     243.250
  N       40.999      76.270     244.716
  C       39.826      76.698     245.309
  N       39.952      77.349     246.486
  N       38.641      76.504     244.796
  C       38.670      75.853     243.610
  C       39.767      75.393     242.917
  C       41.067      75.568     243.520
  O       42.125      75.124     243.084
  N       39.403      74.802     241.735
  C       38.087      74.873     241.732
  N       37.592      75.484     242.856
  O       34.246      75.741     237.427
  O       36.752      75.151     237.319
  H       33.906      76.806     243.996
  H       34.424      76.017     236.509
  H       41.884      76.433     245.165
  H       37.450      74.484     240.953
  H       36.113      75.245     244.267
  H       36.456      77.852     243.259
  H       40.833      77.555     246.930
  H       35.836      77.215     241.003
  H       39.102      77.673     246.933
  H       33.481      75.680     242.220
  H       33.782      74.190     240.313
  H       33.517      75.851     239.730
  P       34.499      79.625     241.716
  C       32.821      80.020     243.659
  O       34.157      80.107     243.204
  O       33.426      80.392     240.808
  O       35.894      79.898     241.256
  H       33.857      81.137     240.353
  H       32.828      79.862     244.740
  H       32.284      79.194     243.182
  H       32.307      80.956     243.439
  H       35.399      71.395     237.491
  H       36.556      72.310     238.429
  H       36.434      72.563     236.704

 3  4  5  6  7  8  9  10  11  12  23  26  30  31 0
 6-311+G(2d,p)
 ****
 33  35  36  37  38 0
 6-311+G(2d,p)
 ****
 1  2  13  14  15  16  17  18  19  20  21  22  24  25 0
 3-21G
 ****
 27  28  29  32  34  39  40  41  42  43  44  45  46  47  48  49 0
 3-21G
 ****


