%nproc=1
%NoSave
%Mem=1900MB
#P OB98/GEN NMR

erre ene a

0 1
  C      170.814      19.006    -232.527
  O      171.243      20.118    -233.318
  P      171.915      20.001    -234.763
  C      172.627      21.681    -236.649
  O      172.129      21.482    -235.332
  C      172.177      23.020    -237.274
  O      170.737      23.002    -237.464
  C      172.481      24.181    -236.323
  O      173.772      24.760    -236.300
  C      171.354      25.180    -236.568
  O      171.705      26.177    -237.525
  C      170.217      24.300    -237.100
  N      166.438      26.589    -234.509
  C      167.399      27.149    -235.328
  N      167.386      28.498    -235.440
  N      168.301      26.452    -235.971
  C      168.253      25.130    -235.706
  C      167.363      24.457    -234.894
  C      166.333      25.230    -234.234
  O      165.453      24.781    -233.505
  N      167.641      23.109    -234.853
  C      168.706      22.973    -235.610
  N      169.117      24.169    -236.159
  O      171.298      19.003    -235.683
  O      173.415      19.503    -234.432
  H      172.475      26.668    -237.182
  H      173.693      18.935    -235.181
  H      165.753      27.168    -234.061
  H      169.218      22.036    -235.804
  H      169.787      24.729    -238.021
  H      171.105      25.708    -235.643
  H      166.799      29.097    -234.883
  H      172.322      23.811    -235.302
  H      168.213      28.926    -235.863
  H      172.608      23.150    -238.269
  H      172.271      20.841    -237.254
  H      173.718      21.623    -236.650
  P      174.893      24.527    -235.180
  C      177.455      24.424    -235.270
  O      176.287      25.068    -235.752
  O      175.109      22.942    -235.168
  O      174.538      25.027    -233.813
  H      175.574      22.666    -234.352
  H      178.324      25.056    -235.482
  H      177.583      23.466    -235.788
  H      177.392      24.254    -234.191
  H      170.400      19.362    -231.606
  H      171.650      18.371    -232.321
  H      170.070      18.453    -233.062

 3  4  5  6  7  8  9  10  11  12  23  26  30  31 0
 6-311+G(2d,p)
 ****
 33  35  36  37  38 0
 6-311+G(2d,p)
 ****
 1  2  13  14  15  16  17  18  19  20  21  22  24  25 0
 3-21G
 ****
 27  28  29  32  34  39  40  41  42  43  44  45  46  47  48  49 0
 3-21G
 ****


