%nproc=1
%NoSave
%Mem=1900MB
#P OB98/GEN NMR

erre ene a

0 1
  C      550.286    -621.389     353.577
  O      549.131    -621.678     352.820
  P      548.149    -622.876     353.268
  C      547.185    -623.126     350.892
  O      547.851    -623.775     351.975
  C      547.761    -623.582     349.554
  O      549.088    -623.029     349.362
  C      547.931    -625.087     349.442
  O      546.701    -625.755     349.265
  C      548.885    -625.172     348.246
  O      548.163    -625.044     347.011
  C      549.786    -623.942     348.476
  N      551.095    -624.310     349.011
  C      552.196    -623.965     348.229
  O      552.036    -623.458     347.107
  N      553.455    -624.202     348.713
  C      553.592    -624.843     349.847
  N      554.853    -625.008     350.319
  C      552.453    -625.367     350.621
  C      551.242    -625.044     350.166
  O      546.943    -622.455     354.038
  O      549.091    -623.829     354.154
  H      548.631    -624.019     354.998
  H      547.522    -625.789     346.988
  H      552.621    -625.956     351.505
  H      550.340    -625.362     350.681
  H      549.933    -623.396     347.538
  H      549.425    -626.130     348.209
  H      548.446    -625.471     350.330
  H      547.114    -623.209     348.756
  H      555.623    -624.621     349.764
  H      547.309    -622.051     351.001
  H      555.061    -625.176     351.300
  H      546.109    -623.358     350.949
  P      546.590    -627.238     349.872
  C      545.364    -627.920     347.697
  O      546.367    -628.238     348.645
  O      545.169    -627.222     350.621
  O      547.698    -627.612     350.805
  H      545.229    -627.766     351.440
  H      545.566    -628.482     346.777
  H      545.357    -626.855     347.467
  H      544.381    -628.221     348.081
  H      550.809    -620.569     353.130
  H      550.922    -622.249     353.599
  H      550.002    -621.130     354.576

 3  4  5  6  7  8  9  10  11  12  13  24  27  28  29  30  32 0
 6-311+G(2d,p)
 ****
 34  35 0
 6-311+G(2d,p)
 ****
 1  2  14  15  16  17  18  19  20  21  22  23  25  26 0
 3-21G
 ****
 31  33  36  37  38  39  40  41  42  43  44  45  46 0
 3-21G
 ****


