%nproc=1
%NoSave
%Mem=1900MB
#P OB98/GEN NMR

erre ene a

0 1
  C      -91.482     107.285      15.345
  O      -90.334     106.507      15.609
  H      -92.281     106.621      15.004
  H      -91.277     108.014      14.557
  H      -91.817     107.797      16.250
  P      -89.008     107.251      16.124
  C      -87.444     109.022      15.061
  O      -88.570     108.177      14.884
  C      -86.671     109.151      13.752
  O      -85.979     107.926      13.429
  C      -87.529     109.440      12.526
  O      -88.019     110.768      12.469
  C      -86.523     109.148      11.428
  O      -85.587     110.235      11.327
  C      -85.845     107.872      11.980
  N      -86.443     106.644      11.455
  C      -85.559     105.612      11.118
  O      -84.345     105.754      11.255
  N      -86.071     104.447      10.598
  C      -87.349     104.332      10.408
  N      -87.800     103.159       9.884
  C      -88.313     105.402      10.730
  C      -87.799     106.516      11.246
  O      -87.935     106.369      16.677
  O      -89.539     108.341      17.167
  H      -84.987     110.025      10.588
  H      -88.755     108.824      17.525
  H      -89.364     105.267      10.526
  H      -88.443     107.350      11.503
  H      -84.773     107.869      11.753
  H      -86.981     109.023      10.444
  H      -88.351     108.718      12.445
  H      -85.905     109.924      13.898
  H      -87.116     102.445       9.672
  H      -86.816     108.593      15.848
  H      -88.768     103.011       9.632
  H      -87.768     110.020      15.370
  P      -89.526     110.967      11.944
  C      -90.641     110.967       9.582
  O      -89.446     110.983      10.345
  O      -89.847     112.482      12.336
  O      -90.525     110.003      12.500
  H      -90.361     112.523      13.165
  H      -90.399     110.981       8.540
  H      -91.230     111.827       9.823
  H      -91.196     110.080       9.807

 6  7  8  9  10  11  12  13  14  15  16  26  30  31  32  33  35 0
 6-311+G(2d,p)
 ****
 37  38 0
 6-311+G(2d,p)
 ****
 1  2  3  4  5  17  18  19  20  21  22  23  24  25 0
 3-21G
 ****
 27  28  29  34  36  39  40  41  42  43  44  45  46 0
 3-21G
 ****


