%nproc=1
%NoSave
%Mem=1900MB
#P OB98/GEN NMR

erre ene a

0 1
  C     -116.162     264.350     127.207
  O     -116.636     265.577     126.682
  H     -115.942     264.486     128.270
  H     -115.249     264.036     126.697
  H     -116.930     263.579     127.106
  P     -116.767     265.717     125.090
  C     -119.043     264.511     125.184
  O     -117.730     264.512     124.632
  C     -120.041     263.851     124.231
  O     -121.386     263.961     124.748
  C     -120.100     264.485     122.851
  O     -118.933     264.329     122.080
  C     -121.424     263.956     122.320
  O     -121.305     262.643     121.776
  C     -122.280     263.919     123.611
  N     -123.260     264.999     123.656
  C     -124.548     264.670     123.248
  O     -124.869     263.551     122.844
  N     -125.460     265.687     123.286
  C     -125.206     266.978     123.637
  O     -126.068     267.852     123.631
  C     -123.818     267.277     124.023
  C     -122.923     266.286     124.017
  O     -115.470     265.776     124.336
  O     -117.684     267.012     124.892
  H     -120.672     262.700     121.034
  H     -117.637     267.345     123.964
  H     -126.406     265.464     123.010
  H     -123.577     268.293     124.297
  H     -121.888     266.481     124.300
  H     -122.821     262.966     123.680
  H     -121.837     264.595     121.538
  H     -120.231     265.569     122.977
  H     -119.797     262.784     124.169
  H     -119.336     265.555     125.347
  H     -119.035     263.989     126.147
  P     -118.705     265.026     120.664
  C     -117.100     266.957     121.395
  O     -118.382     266.579     120.907
  O     -119.666     264.673     119.579
  O     -117.255     264.445     120.246
  H     -117.257     264.344     119.271
  H     -117.057     268.021     121.498
  H     -116.347     266.635     120.707
  H     -116.932     266.499     122.348

 6  7  8  9  10  11  12  13  14  15  16  26  31  32  33  34  35 0
 6-311+G(2d,p)
 ****
 36  37 0
 6-311+G(2d,p)
 ****
 1  2  3  4  5  17  18  19  20  21  22  23  24  25 0
 3-21G
 ****
 27  28  29  30  38  39  40  41  42  43  44  45 0
 3-21G
 ****


