%nproc=1
%NoSave
%Mem=1900MB
#P OB98/GEN NMR

erre ene a

0 1
  C      -43.685      66.076     100.263
  O      -45.014      65.929     100.726
  H      -43.374      67.113     100.414
  H      -43.627      65.841      99.197
  H      -43.017      65.422     100.830
  P      -45.676      64.478     100.563
  C      -47.555      63.225     101.829
  O      -46.735      64.384     101.764
  C      -48.543      63.332     102.988
  O      -47.846      63.272     104.244
  C      -49.348      64.626     103.009
  O      -50.467      64.528     102.142
  C      -49.779      64.675     104.467
  O      -50.921      63.820     104.663
  C      -48.559      64.095     105.202
  N      -47.255      66.810     109.360
  C      -48.336      66.048     109.090
  N      -48.645      65.400     107.946
  C      -47.691      65.589     107.020
  C      -46.533      66.343     107.151
  C      -46.324      66.969     108.392
  N      -45.220      67.747     108.662
  N      -45.792      66.312     105.989
  C      -46.461      65.505     105.191
  N      -47.635      65.070     105.754
  O      -44.720      63.341     100.438
  O      -46.619      64.715      99.290
  H      -51.351      64.107     105.491
  H      -47.051      65.586      99.342
  H      -49.052      65.947     109.901
  H      -46.132      65.187     104.208
  H      -48.857      63.447     106.034
  H      -50.074      65.678     104.784
  H      -48.724      65.499     102.788
  H      -49.209      62.460     102.944
  H      -46.935      62.330     101.954
  H      -45.246      68.308     109.498
  H      -44.598      67.968     107.898
  H      -48.091      63.144     100.878
  P      -51.482      65.757     101.956
  C      -53.353      66.283     100.273
  O      -52.211      65.484     100.553
  O      -50.860      67.101     102.113
  O      -52.639      65.479     103.022
  H      -53.157      66.294     103.171
  H      -53.752      66.013      99.317
  H      -53.072      67.315     100.264
  H      -54.095      66.122     101.027

 6  7  8  9  10  11  12  13  14  15  25  28  32  33  34  35 0
 6-311+G(2d,p)
 ****
 36  39  40 0
 6-311+G(2d,p)
 ****
 1  2  3  4  5  16  17  18  19  20  21  22  23  24 0
 3-21G
 ****
 26  27  29  30  31  37  38  41  42  43  44  45  46  47 0
 3-21G
 ****
 48 0
 3-21G
 ****


