%nproc=1
%NoSave
%Mem=1900MB
#P OB98/GEN NMR

erre ene a

0 1
  C      115.544     389.219     -29.701
  O      116.093     387.994     -29.248
  H      114.949     389.025     -30.598
  H      116.352     389.916     -29.954
  H      114.899     389.656     -28.932
  P      116.862     388.022     -27.844
  C      119.229     388.539     -28.863
  O      118.159     388.960     -28.028
  C      120.296     389.628     -28.938
  O      119.746     390.870     -29.422
  C      120.891     389.999     -27.589
  O      121.731     389.000     -27.067
  C      121.613     391.294     -27.949
  O      122.863     391.018     -28.596
  C      120.610     391.935     -28.941
  N      119.847     393.020     -28.336
  C      120.503     394.259     -28.255
  O      121.652     394.375     -28.687
  N      119.856     395.310     -27.660
  C      118.648     395.153     -27.211
  N      118.058     396.228     -26.623
  C      117.907     393.876     -27.298
  C      118.563     392.864     -27.864
  O      117.497     386.556     -27.763
  O      116.027     388.403     -26.662
  H      123.274     391.884     -28.778
  H      118.028     386.317     -28.543
  H      116.896     393.796     -26.918
  H      118.091     391.896     -27.969
  H      121.138     392.335     -29.816
  H      121.837     391.898     -27.066
  H      120.088     390.252     -26.879
  H      121.070     389.303     -29.642
  H      118.607     397.079     -26.559
  H      118.865     388.288     -29.867
  H      117.139     396.214     -26.207
  H      119.653     387.628     -28.432
  P      121.533     388.458     -25.570
  C      123.016     390.328     -24.605
  O      121.733     389.734     -24.603
  O      122.350     387.275     -25.203
  O      119.949     388.212     -25.479
  H      119.398     389.001     -25.633
  H      123.026     391.158     -23.930
  H      123.250     390.668     -25.592
  H      123.743     389.607     -24.294

 6  7  8  9  10  11  12  13  14  15  16  26  30  31  32  33  35 0
 6-311+G(2d,p)
 ****
 37  38 0
 6-311+G(2d,p)
 ****
 1  2  3  4  5  17  18  19  20  21  22  23  24  25 0
 3-21G
 ****
 27  28  29  34  36  39  40  41  42  43  44  45  46 0
 3-21G
 ****


