%nproc=1
%NoSave
%Mem=1900MB
#P OB98/GEN NMR

erre ene a

0 1
  C      837.717     116.022     339.139
  O      838.598     115.761     340.211
  P      839.504     114.423     340.210
  C      838.065     113.629     342.198
  O      838.618     113.291     340.920
  C      836.633     113.113     342.305
  O      835.795     113.713     341.277
  C      836.488     111.615     342.097
  O      837.071     110.757     343.055
  C      834.986     111.485     341.865
  O      834.275     111.478     343.112
  C      834.685     112.775     341.078
  N      834.453     112.520     339.647
  C      833.146     112.656     339.201
  O      832.214     112.996     339.938
  N      832.933     112.381     337.878
  C      833.860     111.920     336.992
  O      833.594     111.637     335.837
  C      835.225     111.778     337.518
  C      835.456     112.067     338.812
  O      840.876     114.591     340.765
  O      839.474     113.961     338.676
  H      834.533     112.288     343.583
  H      838.578     113.774     338.325
  H      831.989     112.461     337.542
  H      835.995     111.420     336.831
  H      836.463     111.963     339.233
  H      833.789     113.265     341.475
  H      834.733     110.549     341.340
  H      836.975     111.363     341.137
  H      836.229     113.424     343.280
  H      838.072     114.722     342.302
  H      838.693     113.217     342.998
  P      838.361     109.851     342.758
  C      836.961     107.736     343.313
  O      837.856     108.361     342.434
  O      839.518     109.987     343.694
  O      838.804     110.367     341.307
  H      839.773     110.293     341.223
  H      836.754     106.721     342.946
  H      836.007     108.281     343.350
  H      837.389     107.689     344.319
  H      837.206     116.946     339.314
  H      837.003     115.229     339.063
  H      838.274     116.090     338.228

 3  4  5  6  7  8  9  10  11  12  13  23  28  29  30  31  32 0
 6-311+G(2d,p)
 ****
 33  34 0
 6-311+G(2d,p)
 ****
 1  2  14  15  16  17  18  19  20  21  22  24  25  26  27 0
 3-21G
 ****
 35  36  37  38  39  40  41  42  43  44  45 0
 3-21G
 ****


