%nproc=1
%NoSave
%Mem=1900MB
#P OB98/GEN NMR

erre ene a

0 1
  C      -21.062     671.726     -90.033
  O      -20.316     671.662     -91.245
  P      -19.837     670.252     -91.800
  C      -21.073     670.474     -94.071
  O      -19.804     670.301     -93.405
  C      -20.878     671.151     -95.427
  O      -20.355     672.465     -95.319
  C      -19.903     670.387     -96.349
  O      -20.506     669.205     -96.837
  C      -19.591     671.451     -97.385
  O      -20.615     671.513     -98.407
  C      -19.612     672.760     -96.533
  N      -18.280     673.268     -96.224
  C      -18.062     674.611     -96.515
  O      -18.952     675.296     -97.066
  N      -16.842     675.154     -96.249
  C      -15.912     674.422     -95.694
  N      -14.699     675.009     -95.438
  C      -16.091     672.992     -95.378
  C      -17.270     672.481     -95.663
  O      -20.572     669.059     -91.246
  O      -18.281     670.191     -91.423
  H      -20.259     672.094     -99.095
  H      -18.019     669.281     -91.278
  H      -15.295     672.421     -94.918
  H      -17.502     671.460     -95.453
  H      -20.154     673.541     -97.059
  H      -18.630     671.245     -97.873
  H      -18.993     670.118     -95.773
  H      -21.877     671.204     -95.920
  H      -14.604     676.010     -95.663
  H      -21.741     671.092     -93.449
  H      -13.946     674.538     -94.957
  H      -21.572     669.496     -94.164
  P      -19.723     667.820     -96.577
  C      -21.704     666.664     -95.324
  O      -20.833     666.659     -96.461
  O      -19.216     668.006     -95.052
  O      -18.611     667.528     -97.504
  H      -18.361     667.519     -94.963
  H      -22.585     666.039     -95.565
  H      -22.045     667.675     -95.095
  H      -21.176     666.246     -94.454
  H      -21.298     672.746     -89.813
  H      -20.481     671.314     -89.234
  H      -21.967     671.166     -90.141

 3  4  5  6  7  8  9  10  11  12  13  23  27  28  29  30  32 0
 6-311+G(2d,p)
 ****
 34  35 0
 6-311+G(2d,p)
 ****
 1  2  14  15  16  17  18  19  20  21  22  24  25  26 0
 3-21G
 ****
 31  33  36  37  38  39  40  41  42  43  44  45  46 0
 3-21G
 ****


