%nproc=1
%NoSave
%Mem=1900MB
#P OB98/GEN NMR

erre ene a

0 1
  C      101.208      80.897     -68.498
  O      101.958      80.227     -67.500
  P      103.469      79.746     -67.765
  C      102.891      77.744     -69.297
  O      103.373      78.169     -68.033
  C      102.607      76.240     -69.279
  O      101.991      75.871     -70.541
  C      103.853      75.364     -69.096
  O      103.460      74.223     -68.324
  C      104.191      74.957     -70.518
  O      104.981      73.779     -70.576
  C      102.788      74.818     -71.119
  N      102.793      74.903     -72.576
  C      103.460      73.902     -73.283
  O      104.044      72.993     -72.693
  N      103.453      73.949     -74.655
  C      102.904      74.954     -75.264
  N      102.870      74.924     -76.624
  C      102.282      76.088     -74.553
  C      102.244      75.984     -73.228
  O      104.445      80.141     -66.711
  O      103.813      80.309     -69.218
  H      104.398      73.010     -70.420
  H      104.136      81.245     -69.203
  H      101.863      76.916     -75.106
  H      101.787      76.756     -72.625
  H      102.334      73.870     -70.806
  H      104.752      75.762     -71.005
  H      104.665      75.885     -68.583
  H      101.876      76.036     -68.486
  H      103.147      74.055     -77.068
  H      103.662      77.948     -70.046
  H      102.197      75.478     -77.142
  H      101.993      78.312     -69.561
  P      104.300      73.873     -67.001
  C      106.092      72.343     -68.088
  O      104.988      72.442     -67.214
  O      103.129      73.527     -65.957
  O      105.161      74.964     -66.454
  H      103.453      73.691     -65.052
  H      106.433      71.304     -68.104
  H      106.915      72.973     -67.740
  H      105.806      72.633     -69.103
  H      100.234      81.127     -68.118
  H      101.116      80.267     -69.358
  H      101.707      81.803     -68.772

 3  4  5  6  7  8  9  10  11  12  13  23  27  28  29  30  32 0
 6-311+G(2d,p)
 ****
 34  35 0
 6-311+G(2d,p)
 ****
 1  2  14  15  16  17  18  19  20  21  22  24  25  26 0
 3-21G
 ****
 31  33  36  37  38  39  40  41  42  43  44  45  46 0
 3-21G
 ****


