%nproc=1
%NoSave
%Mem=1900MB
#P OB98/GEN NMR

erre ene a

0 1
  C      -90.482     113.167    -132.398
  O      -91.099     114.106    -131.541
  H      -90.309     112.229    -131.867
  H      -91.145     112.973    -133.245
  H      -89.535     113.563    -132.774
  P      -90.302     114.500    -130.207
  C      -89.258     116.497    -131.489
  O      -89.025     115.365    -130.661
  C      -87.957     117.267    -131.697
  O      -87.446     117.661    -130.397
  C      -86.853     116.476    -132.422
  O      -86.444     117.168    -133.605
  C      -85.689     116.467    -131.444
  O      -84.423     116.656    -132.073
  C      -86.018     117.609    -130.490
  N      -82.160     118.952    -127.443
  C      -82.722     119.575    -128.502
  N      -83.815     119.218    -129.204
  C      -84.358     118.097    -128.697
  C      -83.915     117.363    -127.613
  C      -82.747     117.822    -126.981
  N      -82.143     117.155    -125.938
  N      -84.727     116.265    -127.397
  C      -85.622     116.314    -128.363
  N      -85.428     117.394    -129.186
  O      -89.661     113.108    -129.737
  O      -91.133     115.116    -129.133
  H      -84.356     115.984    -132.778
  H      -89.829     112.975    -128.786
  H      -82.221     120.481    -128.832
  H      -86.396     115.579    -128.542
  H      -85.668     118.578    -130.869
  H      -85.673     115.505    -130.919
  H      -87.160     115.455    -132.676
  H      -88.185     118.187    -132.247
  H      -89.989     117.158    -131.010
  H      -81.246     117.489    -125.623
  H      -82.511     116.257    -125.662
  H      -89.667     116.159    -132.446
  P      -86.922     116.541    -135.008
  C      -88.482     118.494    -135.738
  O      -88.379     117.136    -135.327
  O      -87.222     115.014    -134.634
  O      -85.913     116.664    -136.101
  H      -87.110     114.449    -135.422
  H      -89.510     118.737    -135.911
  H      -87.925     118.637    -136.640
  H      -88.089     119.129    -134.972

 6  7  8  9  10  11  12  13  14  15  25  28  32  33  34  35 0
 6-311+G(2d,p)
 ****
 36  39  40 0
 6-311+G(2d,p)
 ****
 1  2  3  4  5  16  17  18  19  20  21  22  23  24 0
 3-21G
 ****
 26  27  29  30  31  37  38  41  42  43  44  45  46  47  48 0
 3-21G
 ****


