%nproc=1
%NoSave
%Mem=1900MB
#P OB98/GEN NMR

erre ene a

0 1
  C     -268.569     285.805    -105.461
  O     -267.310     285.214    -105.186
  P     -266.979     283.715    -105.654
  C     -265.281     284.562    -107.391
  O     -266.498     283.857    -107.178
  C     -264.319     283.711    -108.217
  O     -265.030     283.209    -109.371
  C     -263.102     284.442    -108.784
  O     -262.007     284.552    -107.885
  C     -262.721     283.508    -109.925
  O     -262.009     282.370    -109.409
  C     -264.088     283.079    -110.463
  N     -263.891     283.668    -115.542
  C     -263.370     282.731    -114.718
  N     -263.452     282.654    -113.374
  C     -264.194     283.660    -112.889
  C     -264.794     284.686    -113.599
  C     -264.620     284.668    -114.993
  N     -265.169     285.615    -115.833
  N     -265.462     285.545    -112.750
  C     -265.277     285.036    -111.549
  N     -264.528     283.893    -111.581
  O     -268.069     282.735    -105.405
  O     -265.626     283.351    -104.883
  H     -261.206     282.709    -108.975
  H     -265.488     282.386    -104.893
  H     -262.809     281.937    -115.205
  H     -265.663     285.460    -110.633
  H     -264.102     282.030    -110.784
  H     -262.068     283.984    -110.664
  H     -263.380     285.420    -109.195
  H     -264.010     282.850    -107.611
  H     -264.829     284.768    -106.415
  H     -265.103     285.449    -116.822
  H     -265.844     286.258    -115.443
  H     -265.489     285.515    -107.883
  P     -260.916     285.692    -108.198
  C     -261.838     287.390    -106.432
  O     -261.612     287.077    -107.788
  O     -260.344     285.643    -109.571
  O     -259.830     285.469    -107.040
  H     -260.137     285.670    -106.141
  H     -262.167     288.430    -106.360
  H     -260.924     287.273    -105.847
  H     -262.622     286.746    -106.025
  H     -268.589     286.800    -105.069
  H     -269.343     285.225    -105.003
  H     -268.725     285.835    -106.519

 3  4  5  6  7  8  9  10  11  12  22  25  29  30  31  32 0
 6-311+G(2d,p)
 ****
 33  36  37 0
 6-311+G(2d,p)
 ****
 1  2  13  14  15  16  17  18  19  20  21  23  24  26 0
 3-21G
 ****
 27  28  34  35  38  39  40  41  42  43  44  45  46  47  48 0
 3-21G
 ****


