%nproc=1
%NoSave
%Mem=1900MB
#P OB98/GEN NMR

erre ene a

0 1
  C     -162.678     353.256     259.865
  O     -161.436     352.700     260.251
  H     -163.162     353.684     260.748
  H     -163.327     352.478     259.451
  H     -162.525     354.047     259.125
  P     -160.584     351.964     259.108
  C     -161.521     349.611     259.700
  O     -160.376     350.448     259.598
  C     -161.087     348.197     260.076
  O     -162.236     347.321     260.089
  C     -160.104     347.569     259.103
  O     -158.780     348.041     259.287
  C     -160.260     346.092     259.448
  O     -159.444     345.728     260.574
  C     -161.765     345.989     259.793
  N     -162.528     345.360     258.722
  C     -162.059     344.121     258.284
  O     -161.059     343.579     258.761
  N     -162.753     343.545     257.256
  C     -163.824     344.093     256.610
  O     -164.359     343.553     255.643
  C     -164.290     345.394     257.116
  C     -163.625     345.965     258.129
  O     -159.129     352.617     259.260
  O     -161.128     352.104     257.723
  H     -158.987     353.275     258.556
  H     -159.667     346.355     261.288
  H     -162.416     342.652     256.925
  H     -165.144     345.852     256.633
  H     -163.936     346.934     258.507
  H     -161.905     345.390     260.704
  H     -159.954     345.451     258.618
  H     -160.439     347.722     258.065
  H     -160.663     348.224     261.091
  H     -162.041     349.580     258.731
  H     -162.202     350.027     260.453
  P     -157.904     348.392     257.991
  C     -156.547     346.143     257.830
  O     -156.549     347.537     258.105
  O     -157.447     349.887     258.325
  O     -158.642     348.232     256.702
  H     -157.275     350.032     259.277
  H     -155.558     345.755     257.960
  H     -156.865     345.978     256.822
  H     -157.216     345.646     258.501

 6  7  8  9  10  11  12  13  14  15  16  27  31  32  33  34  35 0
 6-311+G(2d,p)
 ****
 36  37 0
 6-311+G(2d,p)
 ****
 1  2  3  4  5  17  18  19  20  21  22  23  24  25 0
 3-21G
 ****
 26  28  29  30  38  39  40  41  42  43  44  45 0
 3-21G
 ****


