%nproc=1
%NoSave
%Mem=1900MB
#P OB98/GEN NMR

erre ene a

0 1
  C      695.101     527.041      35.309
  O      693.824     526.588      35.697
  H      695.025     527.518      34.332
  H      695.787     526.194      35.238
  H      695.495     527.771      36.024
  P      693.577     526.178      37.223
  C      692.835     528.527      38.004
  O      693.804     527.497      38.110
  C      692.780     529.371      39.279
  O      692.633     528.501      40.432
  C      694.092     530.136      39.468
  O      693.902     531.356      40.187
  C      694.921     529.185      40.322
  O      695.968     529.839      41.032
  C      693.846     528.576      41.215
  N      696.770     525.819      44.341
  C      696.836     527.166      44.032
  N      697.837     527.866      44.636
  N      696.019     527.768      43.219
  C      695.125     526.932      42.645
  C      694.963     525.574      42.838
  C      695.860     524.926      43.785
  O      695.855     523.734      44.071
  N      693.964     525.065      42.061
  C      693.510     526.097      41.385
  N      694.174     527.264      41.715
  O      694.854     525.289      37.592
  O      692.300     525.443      37.500
  H      696.622     529.155      41.291
  H      694.649     524.681      38.321
  H      697.417     525.406      44.994
  H      692.705     526.070      40.659
  H      693.649     529.218      42.076
  H      695.389     528.453      39.654
  H      698.586     527.409      45.124
  H      694.582     530.361      38.513
  H      698.077     528.760      44.204
  H      691.902     530.028      39.263
  H      691.866     528.039      37.839
  H      693.043     529.154      37.134
  P      693.642     532.687      39.330
  C      691.073     532.743      39.859
  O      692.102     532.693      38.889
  O      694.442     532.421      37.962
  O      694.090     533.940      40.009
  H      695.262     532.957      37.950
  H      690.121     532.739      39.370
  H      691.172     533.637      40.439
  H      691.147     531.891      40.502

 6  7  8  9  10  11  12  13  14  15  26  29  33  34 0
 6-311+G(2d,p)
 ****
 36  38  39  40  41 0
 6-311+G(2d,p)
 ****
 1  2  3  4  5  16  17  18  19  20  21  22  23  24  25 0
 3-21G
 ****
 27  28  30  31  32  35  37  42  43  44  45  46  47 0
 3-21G
 ****
 48  49 0
 3-21G
 ****


