%nproc=1
%NoSave
%Mem=1900MB
#P OB98/GEN NMR

erre ene a

0 1
  C      601.460     515.054     403.598
  O      600.669     515.629     402.578
  H      601.748     514.045     403.291
  H      600.896     514.986     404.536
  H      602.375     515.644     403.750
  P      600.025     517.078     402.841
  C      597.605     516.206     402.500
  O      598.646     517.050     402.018
  C      596.362     516.340     401.627
  O      595.767     517.652     401.779
  C      596.611     516.194     400.132
  O      596.848     514.860     399.724
  C      595.303     516.744     399.591
  O      594.266     515.759     399.752
  C      595.073     517.956     400.538
  N      595.544     519.214     399.974
  C      594.786     519.771     398.937
  O      593.770     519.203     398.531
  N      595.212     520.941     398.348
  C      596.309     521.497     398.758
  N      596.707     522.629     398.112
  C      597.131     520.957     399.852
  C      596.696     519.827     400.416
  O      600.909     518.257     402.570
  O      599.500     517.008     404.353
  H      593.464     516.127     399.354
  H      599.098     517.889     404.566
  H      598.042     521.459     400.154
  H      597.261     519.362     401.219
  H      594.009     518.052     400.782
  H      595.338     517.005     398.532
  H      597.431     516.851     399.809
  H      595.621     515.609     401.989
  H      596.150     522.947     397.330
  H      597.396     516.492     403.541
  H      597.677     522.965     398.177
  H      597.932     515.165     402.485
  P      598.334     514.264     399.912
  C      598.971     514.554     397.393
  O      598.768     513.667     398.485
  O      598.081     512.957     400.811
  O      599.330     515.198     400.525
  H      598.188     513.157     401.756
  H      599.254     513.994     396.526
  H      599.747     515.249     397.637
  H      598.065     515.087     397.193

 6  7  8  9  10  11  12  13  14  15  16  26  30  31  32  33  35 0
 6-311+G(2d,p)
 ****
 37  38 0
 6-311+G(2d,p)
 ****
 1  2  3  4  5  17  18  19  20  21  22  23  24  25 0
 3-21G
 ****
 27  28  29  34  36  39  40  41  42  43  44  45  46 0
 3-21G
 ****


