%nproc=1
%NoSave
%Mem=1900MB
#P OB98/GEN NMR

erre ene a

0 1
  C      868.078    -181.360    -782.937
  O      868.715    -181.530    -784.183
  H      867.964    -180.291    -782.742
  H      868.683    -181.799    -782.141
  H      867.087    -181.825    -782.945
  P      868.844    -183.025    -784.750
  C      868.016    -182.639    -787.184
  O      867.730    -183.178    -785.898
  C      866.724    -182.447    -787.977
  O      866.122    -183.748    -788.215
  C      865.690    -181.573    -787.266
  O      865.029    -180.760    -788.243
  C      864.701    -182.575    -786.697
  O      863.401    -182.017    -786.495
  C      864.764    -183.700    -787.741
  N      864.341    -184.976    -787.173
  C      863.056    -185.025    -786.625
  O      862.343    -184.021    -786.628
  N      862.629    -186.189    -786.035
  C      863.447    -187.192    -785.922
  N      862.975    -188.306    -785.301
  C      864.833    -187.162    -786.428
  C      865.210    -186.039    -787.040
  O      868.266    -183.925    -783.563
  O      870.219    -183.435    -785.163
  H      863.185    -181.459    -787.278
  H      868.710    -184.796    -783.530
  H      865.486    -188.011    -786.288
  H      866.214    -185.918    -787.436
  H      864.120    -183.462    -788.598
  H      865.064    -182.935    -785.727
  H      866.124    -180.934    -786.493
  H      866.979    -182.031    -788.959
  H      862.024    -188.282    -784.959
  H      868.665    -183.335    -787.722
  H      863.540    -189.126    -785.123
  H      868.543    -181.686    -787.067
  P      865.049    -179.178    -787.990
  C      864.802    -178.754    -790.541
  O      865.513    -178.456    -789.346
  O      866.296    -178.974    -787.008
  O      863.786    -178.652    -787.396
  H      865.981    -178.753    -786.111
  H      865.224    -178.201    -791.354
  H      863.774    -178.483    -790.421
  H      864.873    -179.802    -790.747

 6  7  8  9  10  11  12  13  14  15  16  26  30  31  32  33  35 0
 6-311+G(2d,p)
 ****
 37  38 0
 6-311+G(2d,p)
 ****
 1  2  3  4  5  17  18  19  20  21  22  23  24  25 0
 3-21G
 ****
 27  28  29  34  36  39  40  41  42  43  44  45  46 0
 3-21G
 ****


