%nproc=1
%NoSave
%Mem=1900MB
#P OB98/GEN NMR

erre ene a

0 1
  C     -307.717    -787.975    1375.280
  O     -308.913    -788.584    1374.837
  H     -307.027    -787.876    1374.434
  H     -307.241    -788.581    1376.050
  H     -307.928    -786.975    1375.672
  P     -310.041    -788.936    1375.913
  C     -312.094    -787.820    1374.811
  O     -311.431    -789.030    1375.108
  C     -313.012    -787.976    1373.583
  O     -312.189    -788.282    1372.411
  C     -314.038    -789.131    1373.725
  O     -315.196    -788.765    1372.965
  C     -313.295    -790.277    1373.067
  O     -314.161    -791.360    1372.797
  C     -312.646    -789.551    1371.884
  N     -311.578    -790.324    1371.270
  C     -311.968    -791.434    1370.525
  O     -313.158    -791.745    1370.419
  N     -310.979    -792.199    1369.926
  C     -309.737    -791.912    1370.116
  N     -308.816    -792.715    1369.524
  C     -309.296    -790.766    1370.957
  C     -310.260    -790.013    1371.490
  O     -310.071    -788.060    1377.132
  O     -309.743    -790.469    1376.301
  H     -313.658    -792.152    1372.488
  H     -309.320    -790.507    1377.178
  H     -308.226    -790.575    1371.092
  H     -310.031    -789.159    1372.115
  H     -313.407    -789.336    1371.105
  H     -312.515    -790.677    1373.730
  H     -314.311    -789.332    1374.773
  H     -313.519    -787.027    1373.383
  H     -309.160    -793.504    1368.966
  H     -311.321    -787.068    1374.582
  H     -307.801    -792.603    1369.630
  H     -312.681    -787.473    1375.663
  P     -316.687    -789.142    1373.419
  C     -317.225    -787.001    1374.781
  O     -317.541    -787.804    1373.635
  O     -316.759    -790.094    1374.590
  O     -317.374    -789.807    1372.118
  H     -318.025    -790.477    1372.394
  H     -317.866    -786.144    1374.804
  H     -316.205    -786.682    1374.723
  H     -317.368    -787.578    1375.671

 6  7  8  9  10  11  12  13  14  15  16  26  30  31  32  33  35 0
 6-311+G(2d,p)
 ****
 37  38 0
 6-311+G(2d,p)
 ****
 1  2  3  4  5  17  18  19  20  21  22  23  24  25 0
 3-21G
 ****
 27  28  29  34  36  39  40  41  42  43  44  45  46 0
 3-21G
 ****


