%nproc=1
%NoSave
%Mem=1900MB
#P OB98/GEN NMR

erre ene a

0 1
  C       47.235    -758.435     297.190
  O       45.961    -757.827     297.282
  H       47.139    -759.482     297.484
  H       47.941    -757.945     297.863
  H       47.604    -758.393     296.161
  P       45.835    -756.260     296.962
  C       46.589    -755.136     299.161
  O       46.952    -755.513     297.838
  C       47.622    -754.163     299.736
  O       47.513    -752.917     298.997
  C       47.384    -753.859     301.228
  O       48.541    -754.068     302.028
  C       46.766    -752.468     301.202
  O       46.968    -751.724     302.389
  C       47.362    -751.841     299.941
  N       46.548    -750.768     299.370
  C       46.755    -749.479     299.859
  O       47.575    -749.172     300.719
  N       45.964    -748.502     299.306
  C       45.003    -748.690     298.352
  O       44.329    -747.774     297.893
  C       44.814    -750.075     297.896
  C       45.581    -751.033     298.420
  O       44.459    -755.692     297.088
  O       46.395    -756.122     295.470
  H       46.565    -750.843     302.248
  H       45.645    -755.989     294.853
  H       46.118    -747.568     299.638
  H       44.054    -750.259     297.151
  H       45.469    -752.066     298.102
  H       48.350    -751.426     300.146
  H       45.682    -752.571     301.073
  H       46.653    -754.562     301.651
  H       48.627    -754.561     299.560
  H       46.542    -756.047     299.772
  H       45.599    -754.661     299.150
  P       48.879    -755.398     302.826
  C       47.597    -755.034     305.090
  O       47.680    -755.703     303.845
  O       50.264    -755.511     303.372
  O       48.704    -756.564     301.720
  H       49.351    -757.262     301.957
  H       46.732    -755.374     305.621
  H       47.522    -753.980     304.924
  H       48.474    -755.243     305.666

 6  7  8  9  10  11  12  13  14  15  16  26  31  32  33  34  35 0
 6-311+G(2d,p)
 ****
 36  37 0
 6-311+G(2d,p)
 ****
 1  2  3  4  5  17  18  19  20  21  22  23  24  25 0
 3-21G
 ****
 27  28  29  30  38  39  40  41  42  43  44  45 0
 3-21G
 ****


