%nproc=1
%NoSave
%Mem=1900MB
#P OB98/GEN NMR

erre ene a

0 1
  C       27.759     -14.622     203.232
  O       27.103     -13.703     204.081
  H       28.149     -15.460     203.815
  H       27.042     -15.004     202.502
  H       28.576     -14.128     202.698
  P       27.979     -13.049     205.256
  C       28.110     -10.578     206.027
  O       27.271     -11.660     205.650
  C       27.425      -9.251     205.706
  O       27.084      -9.243     204.297
  C       26.140      -8.983     206.509
  O       26.259      -7.757     207.238
  C       25.060      -8.811     205.452
  O       24.141      -7.764     205.752
  C       25.853      -8.518     204.182
  N       21.261      -8.523     201.972
  C       21.788      -7.737     202.936
  N       23.050      -7.717     203.406
  C       23.814      -8.611     202.755
  C       23.426      -9.464     201.736
  C       22.075      -9.413     201.355
  N       21.524     -10.252     200.411
  N       24.486     -10.248     201.321
  C       25.488      -9.902     202.106
  N       25.122      -8.931     203.000
  O       29.316     -12.588     204.503
  O       28.275     -13.956     206.403
  H       24.570      -6.928     205.486
  H       30.095     -12.883     205.011
  H       21.100      -7.033     203.398
  H       26.474     -10.350     202.102
  H       26.093      -7.453     204.081
  H       24.499      -9.749     205.361
  H       25.892      -9.800     207.196
  H       28.148      -8.443     205.867
  H       29.054     -10.634     205.469
  H       20.525     -10.225     200.285
  H       22.097     -10.990     200.028
  H       28.333     -10.652     207.095
  P       26.286      -7.874     208.844
  C       27.952      -7.031     210.657
  O       27.366      -6.814     209.381
  O       27.000      -9.285     209.088
  O       24.937      -7.809     209.478
  H       26.713      -9.661     209.941
  H       28.645      -6.244     210.870
  H       28.466      -7.969     210.658
  H       27.186      -7.043     211.404

 6  7  8  9  10  11  12  13  14  15  25  28  32  33  34  35 0
 6-311+G(2d,p)
 ****
 36  39  40 0
 6-311+G(2d,p)
 ****
 1  2  3  4  5  16  17  18  19  20  21  22  23  24 0
 3-21G
 ****
 26  27  29  30  31  37  38  41  42  43  44  45  46  47  48 0
 3-21G
 ****


