%nproc=1
%NoSave
%Mem=1900MB
#P OB98/GEN NMR

erre ene a

0 1
  C      -44.488     135.312    -538.340
  O      -45.897     135.439    -538.565
  P      -46.431     136.844    -539.127
  C      -45.358     137.914    -541.244
  O      -46.185     136.887    -540.711
  C      -45.353     137.849    -542.776
  O      -44.810     136.599    -543.241
  C      -46.749     137.924    -543.377
  O      -47.213     139.263    -543.378
  C      -46.527     137.349    -544.770
  O      -46.175     138.370    -545.720
  C      -45.349     136.369    -544.556
  N      -45.737     134.982    -544.735
  C      -45.641     134.482    -546.041
  O      -45.266     135.216    -546.961
  N      -45.994     133.179    -546.273
  C      -46.432     132.445    -545.296
  N      -46.774     131.162    -545.587
  C      -46.575     132.941    -543.911
  C      -46.216     134.206    -543.703
  O      -45.366     137.896    -538.559
  O      -47.820     137.181    -538.693
  H      -45.318     138.734    -545.409
  H      -45.797     138.749    -538.375
  H      -46.950     132.294    -543.131
  H      -46.287     134.654    -542.718
  H      -44.538     136.585    -545.267
  H      -47.427     136.865    -545.150
  H      -47.437     137.281    -542.815
  H      -44.732     138.668    -543.158
  H      -46.665     130.855    -546.549
  H      -44.337     137.806    -540.865
  H      -47.130     130.507    -544.906
  H      -45.723     138.884    -540.893
  P      -48.010     139.779    -542.084
  C      -47.330     141.069    -539.975
  O      -46.875     140.341    -541.101
  O      -48.412     138.400    -541.369
  O      -49.193     140.657    -542.312
  H      -48.989     138.576    -540.605
  H      -46.491     141.215    -539.289
  H      -48.120     140.525    -539.452
  H      -47.699     142.053    -540.290
  H      -44.273     134.332    -537.968
  H      -44.174     136.042    -537.624
  H      -43.964     135.467    -539.260

 3  4  5  6  7  8  9  10  11  12  13  21  23  27  28  29  30  32 0
 6-311+G(2d,p)
 ****
 34  35 0
 6-311+G(2d,p)
 ****
 1  2  14  15  16  17  18  19  20  22  24  25  26 0
 3-21G
 ****
 31  33  36  37  38  39  40  41  42  43  44  45  46 0
 3-21G
 ****


