%nproc=1
%NoSave
%Mem=1900MB
#P OB98/GEN NMR

erre ene a

0 1
  C     -228.695     248.807    -293.981
  O     -227.595     249.716    -294.134
  P     -227.293     250.746    -292.943
  C     -224.718     250.400    -292.828
  O     -225.793     251.286    -293.102
  C     -223.376     251.078    -293.116
  O     -223.089     251.123    -294.529
  C     -223.311     252.527    -292.645
  O     -223.014     252.613    -291.259
  C     -222.146     253.052    -293.468
  O     -220.901     252.650    -292.863
  C     -222.340     252.329    -294.807
  N     -222.668     256.890    -297.123
  C     -221.856     256.432    -296.143
  N     -221.843     255.209    -295.563
  C     -222.779     254.414    -296.112
  C     -223.677     254.741    -297.115
  C     -223.600     256.044    -297.629
  N     -224.429     256.506    -298.630
  N     -224.495     253.669    -297.408
  C     -224.088     252.706    -296.603
  N     -223.057     253.112    -295.797
  O     -227.210     249.794    -291.658
  O     -228.342     251.796    -292.778
  H     -220.901     252.997    -291.953
  H     -227.563     250.261    -290.878
  H     -221.124     257.139    -295.769
  H     -224.502     251.709    -296.573
  H     -221.385     252.030    -295.262
  H     -222.130     254.141    -293.529
  H     -224.227     253.066    -292.908
  H     -222.584     250.497    -292.625
  H     -224.815     249.494    -293.432
  H     -224.296     257.442    -298.970
  H     -225.104     255.874    -299.029
  H     -224.776     250.079    -291.781
  P     -223.192     254.045    -290.555
  C     -224.424     253.141    -288.458
  O     -223.266     253.749    -288.982
  O     -224.692     254.453    -290.951
  O     -222.201     255.069    -290.990
  H     -224.767     255.428    -291.010
  H     -224.197     252.746    -287.466
  H     -224.764     252.319    -289.096
  H     -225.229     253.883    -288.367
  H     -228.770     248.188    -294.851
  H     -229.602     249.362    -293.859
  H     -228.533     248.193    -293.119

 3  4  5  6  7  8  9  10  11  12  22  25  29  30  31  32 0
 6-311+G(2d,p)
 ****
 33  36  37 0
 6-311+G(2d,p)
 ****
 1  2  13  14  15  16  17  18  19  20  21  23  24  26 0
 3-21G
 ****
 27  28  34  35  38  39  40  41  42  43  44  45  46  47  48 0
 3-21G
 ****


