%nproc=1
%NoSave
%Mem=1900MB
#P OB98/GEN NMR

erre ene a

0 1
  C      886.904      22.003     104.629
  O      886.682      23.315     105.108
  H      885.982      21.427     104.733
  H      887.691      21.520     105.214
  H      887.190      22.025     103.570
  P      887.825      24.403     104.840
  C      888.319      26.126     102.959
  O      887.509      25.054     103.405
  C      887.855      26.589     101.574
  O      888.017      25.483     100.639
  C      886.385      27.028     101.521
  O      886.274      28.122     100.606
  C      885.686      25.815     100.936
  O      884.447      26.113     100.306
  C      886.755      25.308      99.960
  N      886.551      23.913      99.583
  C      886.108      23.659      98.286
  O      885.957      24.515      97.418
  N      885.832      22.344      98.001
  C      885.931      21.294      98.870
  O      885.645      20.144      98.558
  C      886.394      21.629     100.224
  C      886.677      22.896     100.512
  O      889.121      23.504     104.561
  O      888.039      25.394     105.939
  H      889.592      23.320     105.394
  H      883.889      26.572     100.965
  H      885.509      22.144      97.069
  H      886.474      20.817     100.945
  H      887.003      23.180     101.511
  H      886.777      25.939      99.059
  H      885.497      25.075     101.726
  H      885.969      27.316     102.491
  H      888.515      27.400     101.234
  H      889.359      25.799     102.892
  H      888.253      26.954     103.678
  P      886.304      29.608     101.218
  C      887.537      30.219     103.448
  O      887.611      29.660     102.142
  O      885.086      29.539     102.251
  O      886.196      30.671     100.175
  H      884.994      28.663     102.676
  H      888.499      30.168     103.913
  H      886.829      29.669     104.032
  H      887.227      31.241     103.382

 6  7  8  9  10  11  12  13  14  15  16  27  31  32  33  34  35 0
 6-311+G(2d,p)
 ****
 36  37 0
 6-311+G(2d,p)
 ****
 1  2  3  4  5  17  18  19  20  21  22  23  24  25 0
 3-21G
 ****
 26  28  29  30  38  39  40  41  42  43  44  45 0
 3-21G
 ****


