%nproc=1
%NoSave
%Mem=1900MB
#P OB98/GEN NMR

erre ene a

0 1
  C      -18.563     353.574     -61.479
  O      -19.530     352.736     -60.875
  H      -18.307     353.165     -62.458
  H      -17.660     353.609     -60.864
  H      -18.965     354.584     -61.608
  P      -20.059     353.177     -59.424
  C      -18.893     353.472     -57.117
  O      -18.883     352.832     -58.390
  C      -17.791     352.885     -56.240
  O      -18.091     351.504     -55.935
  C      -16.420     352.865     -56.904
  O      -15.784     354.134     -56.878
  C      -15.704     351.812     -56.067
  O      -15.178     352.373     -54.859
  C      -16.828     350.819     -55.748
  N      -15.431     345.912     -55.934
  C      -15.444     346.811     -54.922
  N      -15.848     348.098     -54.952
  C      -16.293     348.426     -56.176
  C      -16.343     347.619     -57.302
  C      -15.888     346.298     -57.150
  N      -15.851     345.391     -58.181
  N      -16.829     348.324     -58.386
  C      -17.074     349.535     -57.923
  N      -16.770     349.642     -56.593
  O      -21.184     352.086     -59.103
  O      -20.595     354.569     -59.341
  H      -14.460     351.776     -54.571
  H      -22.067     352.464     -59.283
  H      -15.075     346.449     -53.967
  H      -17.464     350.360     -58.507
  H      -16.794     350.478     -54.710
  H      -14.875     351.374     -56.624
  H      -16.505     352.498     -57.937
  H      -17.757     353.445     -55.294
  H      -19.863     353.306     -56.635
  H      -18.745     354.548     -57.260
  H      -15.446     344.486     -58.015
  H      -16.080     345.702     -59.117
  P      -15.203     354.703     -58.257
  C      -13.132     354.119     -59.732
  O      -13.738     354.079     -58.451
  O      -14.921     356.247     -57.942
  O      -16.104     354.529     -59.432
  H      -15.104     356.784     -58.740
  H      -12.165     353.663     -59.684
  H      -13.031     355.137     -60.047
  H      -13.742     353.587     -60.432

 6  7  8  9  10  11  12  13  14  15  25  28  32  33  34  35 0
 6-311+G(2d,p)
 ****
 36  37  40 0
 6-311+G(2d,p)
 ****
 1  2  3  4  5  16  17  18  19  20  21  22  23  24 0
 3-21G
 ****
 26  27  29  30  31  38  39 41  42  43  44  45  46  47  48 0
 3-21G
 ****


