%nproc=1
%NoSave
%Mem=1900MB
#P OB98/GEN NMR

erre ene a

0 1
  C       93.047     -73.759    -157.073
  O       91.817     -73.090    -156.885
  H       93.828     -73.257    -156.498
  H       92.950     -74.785    -156.711
  H       93.319     -73.783    -158.132
  P       91.632     -71.673    -157.613
  C       92.100     -70.929    -160.055
  O       91.661     -71.968    -159.192
  C       91.042     -70.633    -161.116
  O       90.877     -71.817    -161.949
  C       89.662     -70.264    -160.549
  O       89.095     -69.235    -161.366
  C       88.859     -71.539    -160.731
  O       87.458     -71.299    -160.820
  C       89.467     -72.094    -162.015
  N       86.231     -75.532    -163.900
  C       86.398     -74.217    -164.154
  N       87.326     -73.382    -163.644
  C       88.177     -74.049    -162.845
  C       88.139     -75.387    -162.498
  C       87.093     -76.144    -163.053
  N       86.872     -77.468    -162.750
  N       89.153     -75.683    -161.607
  C       89.773     -74.537    -161.402
  N       89.218     -73.520    -162.126
  O       93.041     -70.961    -157.338
  O       90.487     -70.847    -157.134
  H       87.175     -70.785    -160.039
  H       93.009     -70.490    -156.486
  H       85.687     -73.773    -164.847
  H       90.601     -74.384    -160.723
  H       89.063     -71.617    -162.916
  H       89.040     -72.211    -159.885
  H       89.688     -69.934    -159.504
  H       91.416     -69.834    -161.767
  H       93.022     -71.245    -160.553
  H       86.035     -77.898    -163.112
  H       87.438     -77.906    -162.037
  H       92.308     -70.032    -159.465
  P       89.143     -67.735    -160.803
  C       90.799     -66.804    -159.022
  O       90.629     -67.430    -160.289
  O       88.294     -67.822    -159.449
  O       88.577     -66.718    -161.742
  H       87.824     -66.985    -159.289
  H       91.843     -66.671    -158.827
  H       90.369     -67.420    -158.260
  H       90.313     -65.851    -159.027

 6  7  8  9  10  11  12  13  14  15  25  28  32  33  34  35 0
 6-311+G(2d,p)
 ****
 36  39  40 0
 6-311+G(2d,p)
 ****
 1  2  3  4  5  16  17  18  19  20  21  22  23  24 0
 3-21G
 ****
 26  27  29  30  31  37  38  41  42  43  44  45  46  47 0
 3-21G
 ****
 48 0
 3-21G
 ****


