%nproc=1
%NoSave
%Mem=1900MB
#P OB98/GEN NMR

erre ene a

0 1
  C      637.485    -887.090     412.070
  O      636.270    -887.810     412.070
  P      635.917    -888.770     410.834
  C      636.031    -890.800     412.406
  O      636.464    -890.250     411.168
  C      635.031    -891.940     412.143
  O      635.647    -892.980     411.337
  C      634.571    -892.640     413.405
  O      633.617    -891.880     414.092
  C      634.041    -893.970     412.833
  O      632.703    -893.790     412.313
  C      635.037    -894.230     411.686
  N      636.448    -899.100     411.189
  C      635.307    -898.470     410.843
  N      634.988    -897.180     411.055
  C      636.006    -896.520     411.681
  C      637.207    -897.060     412.098
  C      637.443    -898.410     411.799
  N      638.622    -899.070     412.079
  N      637.973    -896.100     412.747
  C      637.224    -895.010     412.700
  N      636.063    -895.200     412.035
  O      636.313    -888.250     409.482
  O      634.337    -888.970     410.914
  H      632.794    -893.180     411.533
  H      633.905    -888.620     410.102
  H      634.552    -899.060     410.360
  H      637.492    -894.030     413.174
  H      634.523    -894.580     410.786
  H      633.999    -894.750     413.575
  H      635.440    -892.870     414.070
  H      634.190    -891.540     411.580
  H      635.543    -890.010     412.994
  H      638.716    -900.000     411.681
  H      639.446    -898.510     412.257
  H      636.898    -891.170     412.978
  P      633.536    -891.890     415.696
  C      634.616    -889.570     415.769
  O      634.693    -890.900     416.234
  O      633.533    -893.240     416.313
  O      632.209    -891.090     416.032
  H      631.814    -891.470     416.845
  H      634.978    -889.520     414.754
  H      635.242    -888.940     416.424
  H      633.583    -889.210     415.827
  H      637.554    -886.506     412.964
  H      637.516    -886.443     411.218
  H      638.306    -887.775     412.028

 3  4  5  6  7  8  9  10  11  12  22  25  29  30  31  32 0
 6-311+G(2d,p)
 ****
 33  36  37 0
 6-311+G(2d,p)
 ****
 1  2  13  14  15  16  17  18  19  20  21  23  24  26 0
 3-21G
 ****
 27  28  34  35  38  39  40  41  42  43  44  45  46  47  48 0
 3-21G
 ****


