%nproc=1
%NoSave
%Mem=1900MB
#P OB98/GEN NMR

erre ene a

0 1
  C       75.225     103.915    -158.389
  O       75.173     103.095    -157.239
  H       75.981     104.694    -158.263
  H       75.496     103.299    -159.251
  H       74.248     104.372    -158.573
  P       74.825     103.820    -155.850
  C       76.386     104.902    -154.072
  O       76.160     104.614    -155.445
  C       77.882     105.084    -153.835
  O       78.571     103.827    -154.026
  C       78.540     106.068    -154.796
  O       78.369     107.417    -154.395
  C       79.994     105.640    -154.684
  O       80.555     106.137    -153.457
  C       79.862     104.110    -154.630
  N       82.389     100.740    -157.539
  C       82.541     101.110    -156.249
  N       81.813     101.998    -155.542
  C       80.835     102.520    -156.298
  C       80.553     102.236    -157.625
  C       81.388     101.299    -158.258
  N       81.258     100.943    -159.581
  N       79.483     102.988    -158.066
  C       79.116     103.698    -157.019
  N       79.923     103.474    -155.936
  O       74.787     102.618    -154.793
  O       73.585     104.648    -155.838
  H       80.545     107.112    -153.513
  H       74.367     102.910    -153.962
  H       83.356     100.631    -155.715
  H       78.285     104.392    -156.997
  H       80.632     103.643    -154.006
  H       80.611     106.026    -155.500
  H       78.200     105.913    -155.825
  H       78.030     105.391    -152.793
  H       76.016     104.068    -153.467
  H       81.992     100.381    -159.981
  H       80.614     101.460    -160.161
  H       75.847     105.813    -153.798
  P       78.404     108.540    -155.543
  C       79.563     110.853    -155.776
  O       79.531     109.597    -155.108
  O       77.039     109.336    -155.305
  O       78.514     108.006    -156.933
  H       76.683     109.676    -156.148
  H       80.361     111.446    -155.382
  H       78.633     111.361    -155.626
  H       79.719     110.696    -156.823

 6  7  8  9  10  11  12  13  14  15  25  28  32  33  34  35 0
 6-311+G(2d,p)
 ****
 36  39  40 0
 6-311+G(2d,p)
 ****
 1  2  3  4  5  16  17  18  19  20  21  22  23  24 0
 3-21G
 ****
 26  27  29  30  31  37  38  41  42  43  44  45  46  47 0
 3-21G
 ****
 48 0
 3-21G
 ****


