%nproc=1
%NoSave
%Mem=1900MB
#P OB98/GEN NMR

erre ene a

0 1
  C      373.984    -380.732    -329.602
  O      372.613    -380.604    -329.285
  H      374.496    -379.801    -329.345
  H      374.109    -380.914    -330.676
  H      374.427    -381.554    -329.032
  P      371.669    -381.850    -329.643
  C      371.101    -382.330    -327.172
  O      370.601    -381.908    -328.437
  C      370.126    -381.945    -326.062
  O      370.210    -380.508    -325.846
  C      368.659    -382.280    -326.379
  O      367.994    -382.683    -325.177
  C      368.095    -380.953    -326.841
  O      366.679    -380.888    -326.705
  C      368.874    -379.974    -325.961
  N      367.204    -375.199    -325.390
  C      367.153    -376.277    -324.575
  N      367.645    -377.514    -324.803
  C      368.293    -377.561    -325.986
  C      368.425    -376.542    -326.917
  C      367.824    -375.308    -326.584
  N      367.842    -374.212    -327.414
  N      369.120    -376.993    -328.027
  C      369.406    -378.251    -327.764
  N      368.910    -378.647    -326.552
  O      372.371    -383.131    -329.930
  O      370.786    -381.261    -330.848
  H      366.278    -381.577    -327.275
  H      370.447    -380.369    -330.639
  H      366.635    -376.131    -323.627
  H      369.950    -378.926    -328.428
  H      368.444    -379.879    -324.956
  H      368.335    -380.797    -327.902
  H      368.556    -383.057    -327.133
  H      370.445    -382.429    -325.121
  H      372.082    -381.866    -326.976
  H      367.393    -373.371    -327.093
  H      368.313    -374.272    -328.310
  H      371.233    -383.419    -327.207
  P      367.151    -384.049    -325.168
  C      367.842    -384.646    -322.756
  O      366.764    -384.405    -323.646
  O      367.744    -385.175    -325.954
  O      365.743    -383.589    -325.786
  H      365.431    -384.283    -326.410
  H      367.458    -384.870    -321.783
  H      368.462    -383.776    -322.703
  H      368.419    -385.474    -323.111

 6  7  8  9  10  11  12  13  14  15  25  28  32  33  34  35 0
 6-311+G(2d,p)
 ****
 36  39  40 0
 6-311+G(2d,p)
 ****
 1  2  3  4  5  16  17  18  19  20  21  22  23  24 0
 3-21G
 ****
 26  27  29  30  31  37  38  41  42  43  44  45  46  47 0
 3-21G
 ****
 48 0
 3-21G
 ****


