%nproc=1
%NoSave
%Mem=1900MB
#P OB98/GEN NMR

erre ene a

0 1
  C      -91.736      79.998      19.841
  O      -90.759      80.994      20.070
  H      -91.256      79.143      19.360
  H      -92.523      80.380      19.184
  H      -92.168      79.673      20.792
  P      -91.269      82.358      20.743
  C      -93.409      83.774      20.498
  O      -92.663      82.668      20.004
  C      -94.297      84.354      19.397
  O      -93.453      85.029      18.431
  C      -95.107      83.293      18.648
  O      -96.399      83.816      18.346
  C      -94.326      83.092      17.361
  O      -95.144      82.613      16.298
  C      -93.743      84.485      17.132
  N      -91.942      84.700      12.364
  C      -93.171      84.917      12.876
  N      -93.563      84.854      14.167
  C      -92.517      84.575      14.966
  C      -91.210      84.326      14.590
  C      -90.933      84.390      13.213
  N      -89.689      84.145      12.680
  N      -90.437      84.032      15.696
  C      -91.261      84.117      16.723
  N      -92.534      84.426      16.328
  O      -90.288      83.481      20.753
  O      -91.747      81.851      22.182
  H      -95.863      83.261      16.146
  H      -92.257      81.022      22.118
  H      -93.946      85.168      12.155
  H      -90.991      83.950      17.760
  H      -94.443      85.155      16.619
  H      -93.526      82.360      17.527
  H      -95.206      82.366      19.213
  H      -94.950      85.117      19.837
  H      -92.730      84.551      20.867
  H      -89.574      84.227      11.682
  H      -88.920      83.930      13.299
  H      -94.021      83.421      21.334
  P      -97.648      83.315      19.217
  C      -99.210      81.263      19.302
  O      -98.000      81.809      18.788
  O      -98.808      84.249      19.292
  O      -96.994      83.107      20.668
  H      -97.640      83.380      21.348
  H      -99.329      80.261      18.945
  H     -100.037      81.858      18.976
  H      -99.174      81.259      20.371

 6  7  8  9  10  11  12  13  14  15  25  28  32  33  34  35 0
 6-311+G(2d,p)
 ****
 36  39  40 0
 6-311+G(2d,p)
 ****
 1  2  3  4  5  16  17  18  19  20  21  22  23  24 0
 3-21G
 ****
 26  27  29  30  31  37  38  41  42  43  44  45  46  47 0
 3-21G
 ****
 48 0
 3-21G
 ****


