%nproc=1
%NoSave
%Mem=1900MB
#P OB98/GEN NMR

erre ene a

0 1
  C      373.994     -93.589     276.537
  O      373.248     -93.047     277.621
  P      373.696     -93.107     279.153
  C      372.386     -95.256     279.907
  O      373.634     -94.632     279.629
  C      372.517     -96.738     280.291
  O      372.884     -97.511     279.117
  C      373.644     -96.938     281.307
  O      373.406     -96.719     282.683
  C      374.220     -98.308     280.986
  O      373.643     -99.342     281.777
  C      373.861     -98.496     279.507
  N      376.682    -100.813     275.917
  C      375.582    -101.291     276.604
  N      375.215    -102.566     276.349
  N      374.915    -100.585     277.482
  C      375.446     -99.361     277.712
  C      376.540     -98.787     277.115
  C      377.239     -99.550     276.096
  O      378.213     -99.168     275.453
  N      376.798     -97.535     277.614
  C      375.876     -97.360     278.539
  N      375.021     -98.442     278.628
  O      373.072     -92.094     280.051
  O      375.280     -92.790     279.089
  H      372.679     -99.330     281.635
  H      375.505     -92.312     279.912
  H      377.151    -101.389     275.231
  H      375.769     -96.483     279.163
  H      373.399     -99.477     279.346
  H      375.299     -98.328     281.184
  H      375.754    -103.190     275.771
  H      374.436     -96.214     281.047
  H      374.549    -102.983     276.999
  H      371.553     -97.141     280.626
  H      371.776     -95.142     279.007
  H      371.871     -94.712     280.700
  P      373.656     -95.357     283.490
  C      375.376     -96.210     285.195
  O      375.153     -95.383     284.056
  O      372.779     -95.525     284.814
  O      373.284     -94.108     282.753
  H      372.646     -94.656     285.247
  H      376.312     -95.916     285.668
  H      375.437     -97.255     284.880
  H      374.561     -96.101     285.917
  H      373.471     -93.413     275.620
  H      374.118     -94.642     276.680
  H      374.955     -93.120     276.495

 3  4  5  6  7  8  9  10  11  12  23  26  30  31 0
 6-311+G(2d,p)
 ****
 33  35  36  37  38 0
 6-311+G(2d,p)
 ****
 1  2  13  14  15  16  17  18  19  20  21  22  24  25 0
 3-21G
 ****
 27  28  29  32  34  39  40  41  42  43  44  45  46  47  48  49 0
 3-21G
 ****


