%nproc=1
%NoSave
%Mem=1900MB
#P OB98/GEN NMR

erre ene a

0 1
  C       25.042      36.813    -102.921
  O       25.849      36.356    -101.858
  H       25.603      37.558    -103.490
  H       24.137      37.283    -102.524
  H       24.768      35.995    -103.591
  P       25.406      35.040    -101.062
  C       23.754      34.480     -99.159
  O       24.384      35.504     -99.916
  C       23.085      35.062     -97.907
  O       24.115      35.505     -96.986
  C       22.232      36.289     -98.247
  O       21.154      36.463     -97.331
  C       23.213      37.437     -98.077
  O       22.574      38.690     -97.833
  C       24.063      36.940     -96.909
  N       27.167      40.626     -95.244
  C       25.790      40.546     -95.175
  N       25.158      41.587     -94.580
  N       25.095      39.553     -95.663
  C       25.852      38.621     -96.292
  C       27.220      38.600     -96.446
  C       27.981      39.690     -95.871
  O       29.200      39.820     -95.924
  N       27.628      37.496     -97.151
  C       26.512      36.852     -97.428
  N       25.409      37.482     -96.905
  O       26.713      34.650    -100.221
  O       24.937      33.898    -101.911
  H       23.266      39.378     -97.846
  H       26.691      33.707     -99.979
  H       27.655      41.399     -94.827
  H       26.449      35.925     -97.983
  H       23.598      37.206     -95.952
  H       23.783      37.541     -99.004
  H       25.636      42.450     -94.373
  H       21.836      36.260     -99.259
  H       24.163      41.694     -94.796
  H       22.513      34.284     -97.391
  H       24.532      33.764     -98.882
  H       23.027      33.946     -99.773
  P       19.712      35.887     -97.727
  C       17.754      36.592     -99.362
  O       18.996      36.875     -98.755
  O       18.858      36.045     -96.386
  O       19.727      34.471     -98.217
  H       18.601      35.169     -96.040
  H       17.481      37.400    -100.008
  H       17.007      36.471     -98.606
  H       17.833      35.690     -99.932

 6  7  8  9  10  11  12  13  14  15  26  29  33  34 0
 6-311+G(2d,p)
 ****
 36  38  39  40  41 0
 6-311+G(2d,p)
 ****
 1  2  3  4  5  16  17  18  19  20  21  22  23  24  25 0
 3-21G
 ****
 27  28  30  31  32  35  37  42  43  44  45  46  47 0
 3-21G
 ****
 48  49 0
 3-21G
 ****


