%nproc=1
%NoSave
%Mem=1900MB
#P OB98/GEN NMR

erre ene a

0 1
  C      210.603      58.573      79.556
  O      209.315      58.742      78.992
  P      208.186      57.659      79.326
  C      209.182      56.127      77.477
  O      208.021      56.715      78.038
  C      208.797      55.101      76.408
  O      210.008      54.549      75.809
  C      207.974      53.919      76.944
  O      207.064      53.520      75.908
  C      209.029      52.846      77.135
  O      208.490      51.535      77.197
  C      209.912      53.115      75.912
  N      211.231      52.492      76.013
  C      211.354      51.181      75.563
  O      210.427      50.525      75.091
  N      212.586      50.608      75.729
  C      213.654      51.168      76.368
  O      214.694      50.557      76.587
  C      213.465      52.554      76.823
  C      212.283      53.143      76.627
  O      206.840      58.524      79.338
  O      208.388      56.921      80.607
  H      209.235      50.909      77.162
  H      206.576      58.729      80.254
  H      212.697      49.662      75.399
  H      214.299      53.037      77.315
  H      212.109      54.157      76.972
  H      209.412      52.762      75.000
  H      209.573      53.032      78.069
  H      207.429      54.145      77.864
  H      208.247      55.618      75.611
  H      209.747      55.627      78.265
  H      209.820      56.907      77.050
  P      205.567      53.126      76.335
  C      205.865      50.653      77.124
  O      205.429      51.546      76.121
  O      204.735      53.754      75.116
  O      205.164      53.657      77.672
  H      205.150      53.587      74.254
  H      205.706      51.062      78.125
  H      206.927      50.443      76.984
  H      205.304      49.718      77.033
  H      211.239      59.373      79.240
  H      211.015      57.641      79.231
  H      210.528      58.577      80.623

 3  4  5  6  7  8  9  10  11  12  13  23  28  29  30  31  32 0
 6-311+G(2d,p)
 ****
 33  34 0
 6-311+G(2d,p)
 ****
 1  2  14  15  16  17  18  19  20  21  22  24  25  26 0
 3-21G
 ****
 27  35  36  37  38  39  40  41  42  43  44  45 0
 3-21G
 ****


