%nproc=1
%NoSave
%Mem=1900MB
#P OB98/GEN NMR

erre ene a

0 1
  C     -136.697       9.588      -0.721
  O     -136.623       8.283      -0.178
  H     -137.605      10.070      -0.350
  H     -136.742       9.538      -1.811
  H     -135.831      10.175      -0.407
  P     -135.339       7.411      -0.584
  C     -133.670       9.078       0.482
  O     -134.157       8.487      -0.715
  C     -132.206       9.479       0.323
  O     -131.758      10.227       1.466
  C     -131.243       8.305       0.194
  O     -131.234       7.801      -1.132
  C     -129.927       8.976       0.551
  O     -129.426       9.703      -0.588
  C     -130.343       9.961       1.659
  N     -126.880       9.031       5.331
  C     -126.741       9.344       4.025
  N     -127.704       9.534       3.100
  C     -128.923       9.372       3.638
  C     -129.220       9.053       4.955
  C     -128.131       8.889       5.827
  N     -128.278       8.580       7.161
  N     -130.584       8.968       5.142
  C     -131.101       9.283       3.972
  N     -130.137       9.500       3.020
  O     -135.523       6.486      -1.736
  O     -135.000       6.701       0.811
  H     -130.106      10.355      -0.842
  H     -135.142       7.316       1.551
  H     -125.719       9.458       3.676
  H     -132.160       9.383       3.766
  H     -129.814      10.917       1.571
  H     -129.156       8.256       0.833
  H     -131.460       7.526       0.932
  H     -132.133      10.142      -0.548
  H     -133.776       8.382       1.322
  H     -127.450       8.313       7.671
  H     -129.202       8.353       7.497
  H     -134.283       9.961       0.686
  P     -130.508       6.414      -1.475
  C     -132.396       4.729      -1.925
  O     -131.487       5.248      -0.963
  O     -129.105       6.301      -0.991
  O     -130.602       6.293      -3.065
  H     -129.782       5.905      -3.424
  H     -132.993       3.964      -1.475
  H     -131.849       4.317      -2.747
  H     -133.030       5.516      -2.277

 6  7  8  9  10  11  12  13  14  15  25  28  32  33  34  35 0
 6-311+G(2d,p)
 ****
 36  39  40 0
 6-311+G(2d,p)
 ****
 1  2  3  4  5  16  17  18  19  20  21  22  23  24 0
 3-21G
 ****
 26  27  29  30  31  37  38  41  42  43  44  45  46  47 0
 3-21G
 ****
 48 0
 3-21G
 ****


