%nproc=1
%NoSave
%Mem=1900MB
#P OB98/GEN NMR

erre ene a

0 1
  C      -36.039    -281.063    -483.339
  O      -36.324    -280.076    -482.361
  P      -37.002    -280.471    -480.960
  C      -36.049    -278.262    -480.017
  O      -37.199    -279.080    -480.188
  C      -36.453    -276.920    -479.412
  O      -37.248    -277.142    -478.230
  C      -35.285    -276.050    -478.968
  O      -34.654    -275.433    -480.081
  C      -35.982    -275.102    -478.001
  O      -36.666    -274.065    -478.722
  C      -37.010    -276.036    -477.329
  N      -36.575    -276.508    -476.019
  C      -36.630    -275.583    -474.972
  O      -37.034    -274.437    -475.159
  N      -36.254    -275.989    -473.716
  C      -35.838    -277.202    -473.524
  N      -35.543    -277.568    -472.246
  C      -35.712    -278.192    -474.610
  C      -36.100    -277.785    -475.815
  O      -36.275    -281.516    -480.183
  O      -38.499    -280.871    -481.337
  H      -36.908    -273.381    -478.066
  H      -38.607    -281.827    -481.571
  H      -35.348    -279.190    -474.404
  H      -36.058    -278.457    -476.661
  H      -37.972    -275.522    -477.216
  H      -35.300    -274.623    -477.291
  H      -34.545    -276.651    -478.426
  H      -37.072    -276.385    -480.146
  H      -35.809    -276.918    -471.516
  H      -35.595    -278.090    -480.999
  H      -35.496    -278.542    -471.974
  H      -35.328    -278.781    -479.379
  P      -33.084    -275.686    -480.278
  C      -33.631    -275.074    -482.737
  O      -32.700    -274.991    -481.674
  O      -32.999    -277.254    -480.575
  O      -32.244    -275.284    -479.112
  H      -32.718    -277.737    -479.775
  H      -33.334    -274.366    -483.515
  H      -34.638    -274.818    -482.394
  H      -33.625    -276.083    -483.161
  H      -35.592    -280.600    -484.194
  H      -36.947    -281.549    -483.630
  H      -35.363    -281.785    -482.931

 3  4  5  6  7  8  9  10  11  12  13  23  27  28  29  30  32 0
 6-311+G(2d,p)
 ****
 34  35 0
 6-311+G(2d,p)
 ****
 1  2  14  15  16  17  18  19  20  21  22  24  25  26 0
 3-21G
 ****
 31  33  36  37  38  39  40  41  42  43  44  45  46 0
 3-21G
 ****


