%nproc=1
%NoSave
%Mem=1900MB
#P OB98/GEN NMR

erre ene a

0 1
  C     -548.506    -153.915    -243.256
  O     -549.471    -153.000    -242.793
  H     -547.970    -154.320    -242.392
  H     -547.781    -153.415    -243.904
  H     -548.982    -154.744    -243.790
  P     -550.382    -152.216    -243.860
  C     -549.004    -150.050    -243.779
  O     -549.391    -151.163    -244.574
  C     -548.412    -148.937    -244.645
  O     -549.193    -148.797    -245.860
  C     -548.380    -147.564    -243.951
  O     -547.094    -146.959    -244.132
  C     -549.433    -146.761    -244.704
  O     -549.219    -145.355    -244.631
  C     -549.324    -147.385    -246.101
  N     -550.476    -147.062    -246.934
  C     -550.196    -146.458    -248.164
  O     -549.033    -146.227    -248.498
  N     -551.245    -146.073    -248.964
  C     -552.463    -146.240    -248.549
  N     -553.455    -145.811    -249.381
  C     -552.802    -146.846    -247.246
  C     -551.769    -147.234    -246.495
  O     -551.633    -151.623    -243.296
  O     -550.663    -153.279    -245.022
  H     -548.273    -145.174    -244.836
  H     -551.474    -153.010    -245.513
  H     -553.834    -146.956    -246.948
  H     -551.918    -147.694    -245.524
  H     -548.414    -147.038    -246.614
  H     -550.421    -146.976    -244.277
  H     -548.604    -147.613    -242.888
  H     -547.403    -149.242    -244.963
  H     -553.179    -145.394    -250.264
  H     -548.273    -150.388    -243.035
  H     -554.437    -145.866    -249.154
  H     -549.892    -149.667    -243.264
  P     -546.038    -147.172    -242.940
  C     -547.006    -145.030    -241.836
  O     -546.572    -146.368    -241.658
  O     -544.766    -146.328    -243.425
  O     -545.692    -148.605    -242.704
  H     -544.038    -146.938    -243.665
  H     -547.330    -144.632    -240.897
  H     -547.818    -145.008    -242.532
  H     -546.197    -144.440    -242.213

 6  7  8  9  10  11  12  13  14  15  16  26  30  31  32  33  35 0
 6-311+G(2d,p)
 ****
 37  38 0
 6-311+G(2d,p)
 ****
 1  2  3  4  5  17  18  19  20  21  22  23  24  25 0
 3-21G
 ****
 27  28  29  34  36  39  40  41  42  43  44  45  46 0
 3-21G
 ****


