%nproc=1
%NoSave
%Mem=1900MB
#P OB98/GEN NMR

erre ene a

0 1
  C       10.098       3.632     -11.490
  O        9.266       2.490     -11.448
  P        7.709       2.636     -11.104
  C        6.279       3.465      -9.138
  O        7.572       3.047      -9.561
  C        6.119       3.266      -7.633
  O        6.068       1.860      -7.302
  C        7.270       3.823      -6.809
  O        7.248       5.236      -6.752
  C        7.040       3.120      -5.477
  O        6.022       3.786      -4.717
  C        6.545       1.733      -5.940
  N        7.573       0.710      -5.830
  C        7.958       0.363      -4.531
  O        7.496       0.965      -3.562
  N        8.865      -0.654      -4.368
  C        9.431      -1.186      -5.405
  N       10.275      -2.228      -5.184
  C        9.170      -0.733      -6.787
  C        8.224       0.193      -6.926
  O        6.854       1.488     -11.524
  O        7.269       3.975     -11.865
  H        6.464       3.791     -12.387
  H        5.733       3.156      -4.028
  H        9.718      -1.163      -7.612
  H        7.950       0.570      -7.905
  H        5.675       1.425      -5.348
  H        7.943       3.095      -4.858
  H        8.223       3.490      -7.236
  H        5.170       3.726      -7.328
  H       10.414      -2.523      -4.226
  H        5.529       2.872      -9.669
  H       10.505      -2.906      -5.907
  H        6.136       4.517      -9.404
  P        8.664       5.980      -6.631
  C       10.654       5.906      -4.977
  O        9.305       5.566      -5.224
  O        8.258       7.516      -6.428
  O        9.559       5.807      -7.814
  H        8.900       8.088      -6.887
  H       10.830       5.881      -3.899
  H       10.890       6.907      -5.350
  H       11.309       5.174      -5.458
  H       11.097       3.337     -11.734
  H       10.092       4.113     -10.534
  H        9.735       4.311     -12.233

 3  4  5  6  7  8  9  10  11  12  13  24  27  28  29  30  32 0
 6-311+G(2d,p)
 ****
 34  35 0
 6-311+G(2d,p)
 ****
 1  2  14  15  16  17  18  19  20  21  22  23  25  26 0
 3-21G
 ****
 31  33  36  37  38  39  40  41  42  43  44  45  46 0
 3-21G
 ****


