%nproc=1
%NoSave
%Mem=1900MB
#P OB98/GEN NMR

erre ene a

0 1
  C       73.240    -126.727    -277.650
  O       73.307    -126.389    -276.251
  P       71.951    -126.368    -275.387
  C       72.315    -128.902    -274.884
  O       71.892    -127.635    -274.404
  C       72.973    -129.731    -273.768
  O       74.041    -128.965    -273.139
  C       72.013    -130.162    -272.649
  O       72.470    -131.440    -272.170
  C       72.244    -129.099    -271.590
  O       71.820    -129.496    -270.293
  C       73.759    -128.908    -271.724
  N       74.256    -127.655    -271.145
  C       74.345    -127.572    -269.759
  O       73.976    -128.447    -268.984
  N       74.859    -126.396    -269.266
  C       75.243    -125.313    -270.002
  O       75.668    -124.281    -269.499
  C       75.103    -125.449    -271.459
  C       74.624    -126.590    -271.953
  O       70.848    -126.743    -276.493
  O       71.615    -125.056    -274.750
  H       70.863    -129.675    -270.346
  H       70.085    -126.141    -276.411
  H       74.944    -126.320    -268.266
  H       75.401    -124.617    -272.081
  H       74.523    -126.717    -273.028
  H       74.276    -129.749    -271.265
  H       71.687    -128.193    -271.861
  H       70.972    -130.232    -272.975
  H       73.446    -130.609    -274.231
  H       73.039    -128.760    -275.691
  H       71.451    -129.436    -275.288
  P       71.413    -132.654    -272.102
  C       72.583    -133.906    -274.085
  O       72.122    -133.933    -272.749
  O       70.380    -132.191    -273.242
  O       70.773    -132.841    -270.768
  H       70.823    -131.889    -274.053
  H       73.062    -132.948    -274.320
  H       71.744    -134.075    -274.764
  H       73.318    -134.703    -274.221
  H       74.223    -126.694    -278.072
  H       72.611    -126.026    -278.157
  H       72.837    -127.712    -277.760

 3  4  5  6  7  8  9  10  11  12  13  23  28  29  30  31  32 0
 6-311+G(2d,p)
 ****
 33  34 0
 6-311+G(2d,p)
 ****
 1  2  14  15  16  17  18  19  20  21  22  24  25  26 0
 3-21G
 ****
 27  35  36  37  38  39  40  41  42  43  44  45 0
 3-21G
 ****


