%nproc=1
%NoSave
%Mem=1900MB
#P OB98/GEN NMR

erre ene a

0 1
  C      211.220     291.532     205.723
  O      211.767     290.757     206.769
  H      210.635     292.348     206.159
  H      210.561     290.921     205.103
  H      212.020     291.959     205.109
  P      212.620     289.467     206.345
  C      210.957     287.805     207.453
  O      212.282     288.321     207.419
  C      210.960     286.432     208.128
  O      211.930     285.575     207.488
  C      211.360     286.463     209.601
  O      210.301     286.890     210.433
  C      211.741     285.012     209.825
  O      210.589     284.203     210.109
  C      212.380     284.621     208.473
  N      213.839     284.551     208.547
  C      214.382     283.273     208.521
  O      213.702     282.248     208.442
  N      215.746     283.199     208.631
  C      216.592     284.259     208.797
  O      217.801     284.126     208.965
  C      215.957     285.590     208.808
  C      214.633     285.676     208.698
  O      214.121     289.891     206.700
  O      212.471     289.053     204.919
  H      214.600     290.135     205.886
  H      210.909     283.283     210.173
  H      216.157     282.280     208.624
  H      216.602     286.450     208.933
  H      214.137     286.639     208.717
  H      212.013     283.636     208.151
  H      212.419     284.899     210.674
  H      212.251     287.093     209.735
  H      209.964     285.985     208.011
  H      210.578     287.699     206.435
  H      210.315     288.503     208.002
  P      210.112     288.463     210.692
  C      210.409     288.244     213.299
  O      209.587     288.619     212.205
  O      208.818     288.768     209.801
  O      211.316     289.279     210.360
  H      208.173     288.040     209.795
  H      209.886     288.422     214.215
  H      211.309     288.823     213.284
  H      210.652     287.205     213.223

 6  7  8  9  10  11  12  13  14  15  16  27  31  32  33  34  35 0
 6-311+G(2d,p)
 ****
 36  37 0
 6-311+G(2d,p)
 ****
 1  2  3  4  5  17  18  19  20  21  22  23  24  25 0
 3-21G
 ****
 26  28  29  30  38  39  40  41  42  43  44  45 0
 3-21G
 ****


