%nproc=1
%NoSave
%Mem=1900MB
#P OB98/GEN NMR

erre ene a

0 1
  C       90.555     214.730     612.961
  O       89.433     214.221     613.678
  P       88.003     213.898     613.035
  C       87.793     211.358     613.698
  O       87.959     212.336     612.669
  C       86.294     211.015     613.958
  O       85.808     210.217     612.830
  C       86.173     210.137     615.196
  O       86.131     210.738     616.486
  C       84.992     209.218     614.901
  O       83.761     209.734     615.410
  C       84.965     209.179     613.357
  N       83.560     204.815     611.053
  C       82.775     205.868     611.491
  N       81.429     205.719     611.350
  N       83.246     206.962     612.050
  C       84.595     206.927     612.207
  C       85.488     205.956     611.836
  C       84.942     204.775     611.184
  O       85.606     203.820     610.754
  N       86.773     206.268     612.185
  C       86.660     207.426     612.789
  N       85.353     207.871     612.820
  O       87.538     214.849     611.978
  O       86.998     214.012     614.282
  H       83.890     209.992     616.336
  H       86.143     214.349     613.921
  H       83.152     204.017     610.625
  H       87.485     207.988     613.224
  H       83.940     209.370     612.983
  H       85.145     208.237     615.364
  H       81.004     204.871     611.040
  H       87.059     209.472     615.220
  H       80.849     206.386     611.858
  H       85.695     211.926     613.992
  H       88.255     211.770     614.607
  H       88.353     210.446     613.443
  P       87.071     210.361     617.739
  C       88.522     212.487     617.810
  O       88.483     211.093     617.517
  O       87.434     208.823     617.491
  O       86.445     210.571     619.075
  H       87.781     208.421     618.338
  H       89.412     212.922     617.338
  H       88.573     212.644     618.890
  H       87.629     212.986     617.399
  H       91.380     214.854     613.631
  H       90.302     215.675     612.528
  H       90.825     214.043     612.186

 3  4  5  6  7  8  9  10  11  12  23  26  30  31 0
 6-311+G(2d,p)
 ****
 33  35  36  37  38 0
 6-311+G(2d,p)
 ****
 1  2  13  14  15  16  17  18  19  20  21  22  24  25 0
 3-21G
 ****
 27  28  29  32  34  39  40  41  42  43  44  45  46  47  48  49 0
 3-21G
 ****


