%nproc=1
%NoSave
%Mem=1900MB
#P OB98/GEN NMR

erre ene a

0 1
  C       32.809    -113.976    -352.368
  O       32.947    -114.932    -351.334
  H       33.796    -113.771    -352.789
  H       32.396    -113.044    -351.977
  H       32.164    -114.365    -353.162
  P       31.630    -115.397    -350.551
  C       29.971    -114.136    -349.026
  O       31.308    -114.229    -349.498
  C       29.708    -112.739    -348.475
  O       29.574    -111.789    -349.553
  C       28.432    -112.632    -347.641
  O       28.662    -113.102    -346.322
  C       28.182    -111.134    -347.709
  O       29.081    -110.451    -346.814
  C       28.553    -110.827    -349.172
  N       24.752    -108.345    -351.437
  C       25.645    -107.914    -350.474
  N       25.471    -106.653    -350.018
  N       26.605    -108.657    -349.984
  C       26.613    -109.915    -350.482
  C       25.769    -110.464    -351.428
  C       24.751    -109.614    -352.001
  O       23.950    -109.954    -352.870
  N       26.047    -111.791    -351.633
  C       27.076    -112.036    -350.842
  N       27.448    -110.933    -350.111
  O       31.669    -116.767    -349.940
  O       30.462    -115.254    -351.634
  H       29.066    -110.944    -345.973
  H       30.319    -116.090    -352.114
  H       24.026    -107.730    -351.759
  H       27.586    -112.988    -350.764
  H       28.982    -109.823    -349.290
  H       27.169    -110.852    -347.429
  H       24.599    -106.157    -350.145
  H       27.589    -113.148    -348.118
  H       26.082    -106.335    -349.276
  H       30.585    -112.439    -347.889
  H       29.842    -114.889    -348.243
  H       29.262    -114.351    -349.838
  P       27.450    -113.256    -345.276
  C       25.450    -111.699    -344.775
  O       26.814    -111.790    -345.162
  O       27.825    -113.874    -343.974
  O       26.328    -114.060    -346.075
  H       26.417    -115.044    -346.002
  H       25.157    -110.670    -344.739
  H       25.323    -112.140    -343.808
  H       24.842    -112.218    -345.486

 6  7  8  9  10  11  12  13  14  15  26  29  33  34 0
 6-311+G(2d,p)
 ****
 36  38  39  40  41 0
 6-311+G(2d,p)
 ****
 1  2  3  4  5  16  17  18  19  20  21  22  23  24  25 0
 3-21G
 ****
 27  28  30  31  32  35  37  42  43  44  45  46  47 0
 3-21G
 ****
 48  49 0
 3-21G
 ****


