%nproc=1
%NoSave
%Mem=1900MB
#P OB98/GEN NMR

erre ene a

0 1
  C      572.094      22.674     253.918
  O      573.295      23.219     253.355
  P      574.630      23.492     254.199
  C      576.250      21.905     252.922
  O      575.537      22.164     254.137
  C      577.214      20.728     253.107
  O      576.468      19.514     253.397
  C      578.037      20.380     251.868
  O      579.066      21.317     251.626
  C      578.534      18.976     252.239
  O      579.715      19.041     253.049
  C      577.354      18.410     253.053
  N      576.627      17.362     252.357
  C      577.189      16.083     252.376
  O      578.299      15.899     252.899
  N      576.507      15.056     251.787
  C      575.394      15.286     251.158
  N      574.746      14.221     250.614
  C      574.833      16.642     250.991
  C      575.493      17.624     251.605
  O      574.391      23.981     255.591
  O      575.477      24.558     253.352
  H      576.052      25.073     253.949
  H      579.421      19.330     253.939
  H      573.930      16.809     250.413
  H      575.142      18.643     251.553
  H      577.716      18.021     254.015
  H      578.784      18.387     251.349
  H      577.374      20.311     250.995
  H      577.872      20.948     253.956
  H      575.154      13.302     250.755
  H      576.823      22.802     252.669
  H      573.879      14.292     250.109
  H      575.525      21.716     252.120
  P      578.904      22.270     250.338
  C      578.945      24.525     251.629
  O      578.201      23.626     250.832
  O      577.756      21.539     249.472
  O      580.148      22.458     249.541
  H      577.977      21.608     248.528
  H      578.564      25.534     251.468
  H      580.016      24.507     251.379
  H      578.816      24.262     252.676
  H      571.349      22.588     253.155
  H      571.738      23.321     254.692
  H      572.299      21.707     254.327

 3  4  5  6  7  8  9  10  11  12  13  24  27  28  29  30  32 0
 6-311+G(2d,p)
 ****
 34  35 0
 6-311+G(2d,p)
 ****
 1  2  14  15  16  17  18  19  20  21  22  23  25  26 0
 3-21G
 ****
 31  33  36  37  38  39  40  41  42  43  44  45  46 0
 3-21G
 ****


