%nproc=1
%NoSave
%Mem=1900MB
#P OB98/GEN NMR

erre ene a

0 1
  C      167.487     -46.173    -430.484
  O      166.471     -46.854    -431.238
  P      166.909     -47.827    -432.441
  C      164.594     -47.301    -433.539
  O      165.598     -48.264    -433.252
  C      163.673     -47.815    -434.648
  O      164.436     -48.128    -435.838
  C      162.928     -49.097    -434.304
  O      161.832     -48.858    -433.436
  C      162.509     -49.582    -435.690
  O      161.310     -48.921    -436.125
  C      163.713     -49.154    -436.553
  N      164.582     -50.276    -436.901
  C      164.568     -50.680    -438.234
  O      163.830     -50.179    -439.079
  N      165.411     -51.709    -438.551
  C      166.199     -52.402    -437.677
  O      166.921     -53.330    -438.024
  C      166.111     -51.982    -436.271
  C      165.316     -50.959    -435.952
  O      167.281     -49.179    -431.658
  O      168.065     -47.361    -433.264
  H      161.478     -47.962    -436.048
  H      167.949     -49.676    -432.165
  H      165.439     -51.997    -439.517
  H      166.703     -52.522    -435.541
  H      165.241     -50.637    -434.919
  H      163.362     -48.685    -437.480
  H      162.308     -50.657    -435.710
  H      163.622     -49.823    -433.866
  H      162.962     -47.013    -434.902
  H      165.070     -46.372    -433.870
  H      164.025     -47.097    -432.629
  P      162.163     -48.781    -431.866
  C      160.166     -49.776    -430.505
  O      160.739     -48.657    -431.142
  O      162.810     -47.319    -431.764
  O      163.048     -49.890    -431.397
  H      162.412     -46.697    -432.397
  H      160.932     -50.429    -430.069
  H      159.579     -50.345    -431.229
  H      159.507     -49.429    -429.703
  H      167.027     -45.572    -429.728
  H      168.058     -45.548    -431.138
  H      168.132     -46.892    -430.024

 3  4  5  6  7  8  9  10  11  12  13  23  28  29  30  31  32 0
 6-311+G(2d,p)
 ****
 33  34 0
 6-311+G(2d,p)
 ****
 1  2  14  15  16  17  18  19  20  21  22  24  25  26 0
 3-21G
 ****
 27  35  36  37  38  39  40  41  42  43  44  45 0
 3-21G
 ****


