%nproc=1
%NoSave
%Mem=1900MB
#P OB98/GEN NMR

erre ene a

0 1
  C      347.658     -51.085     117.583
  O      347.501     -52.348     118.236
  P      348.242     -52.535     119.648
  C      350.198     -53.927     118.676
  O      349.810     -52.750     119.368
  C      351.288     -54.691     119.437
  O      351.297     -56.098     119.062
  C      352.702     -54.155     119.183
  O      353.457     -54.328     120.391
  C      353.245     -55.104     118.133
  O      354.669     -55.070     118.079
  C      352.629     -56.420     118.611
  N      355.344     -59.989     116.170
  C      355.655     -59.149     117.177
  N      354.879     -58.208     117.759
  C      353.650     -58.215     117.220
  C      353.188     -59.004     116.179
  C      354.097     -59.927     115.640
  N      353.790     -60.766     114.595
  N      351.879     -58.684     115.870
  C      351.563     -57.716     116.710
  N      352.588     -57.420     117.561
  O      347.743     -53.978     120.133
  O      347.910     -51.479     120.649
  H      354.956     -55.549     117.275
  H      347.114     -53.881     120.870
  H      356.668     -59.242     117.572
  H      350.618     -57.197     116.733
  H      353.182     -56.858     119.451
  H      352.856     -54.830     117.146
  H      352.747     -53.108     118.866
  H      351.065     -54.638     120.509
  H      350.570     -53.672     117.682
  H      354.509     -61.379     114.247
  H      352.881     -60.697     114.160
  H      349.315     -54.556     118.514
  P      353.819     -52.995     121.203
  C      355.846     -52.387     119.699
  O      354.558     -52.025     120.166
  O      354.993     -53.459     122.191
  O      352.669     -52.397     121.945
  H      355.016     -52.888     122.979
  H      355.911     -52.154     118.633
  H      356.053     -53.451     119.841
  H      356.596     -51.803     120.237
  H      347.118     -51.092     116.659
  H      348.696     -50.910     117.389
  H      347.277     -50.308     118.213

 3  4  5  6  7  8  9  10  11  12  22  25  29  30  31  32 0
 6-311+G(2d,p)
 ****
 33  36  37 0
 6-311+G(2d,p)
 ****
 1  2  13  14  15  16  17  18  19  20  21  23  24  26 0
 3-21G
 ****
 27  28  34  35  38  39  40  41  42  43  44  45  46  47  48 0
 3-21G
 ****


