%nproc=1
%NoSave
%Mem=1900MB
#P OB98/GEN NMR

erre ene a

0 1
  C      218.644     -81.574     215.024
  O      218.543     -80.452     214.175
  H      219.007     -81.244     216.001
  H      219.359     -82.291     214.612
  H      217.669     -82.051     215.152
  P      217.879     -80.676     212.731
  C      215.364     -80.420     212.143
  O      216.332     -81.025     212.986
  C      214.106     -81.285     212.070
  O      214.428     -82.522     211.382
  C      213.527     -81.646     213.440
  O      212.099     -81.622     213.354
  C      213.996     -83.072     213.664
  O      213.151     -83.796     214.558
  C      214.031     -83.616     212.230
  N      214.939     -84.753     212.111
  C      214.812     -85.762     213.070
  O      213.971     -85.663     213.965
  N      215.673     -86.827     213.029
  C      216.636     -86.843     212.160
  N      217.476     -87.912     212.190
  C      216.851     -85.767     211.174
  C      215.970     -84.768     211.200
  O      218.494     -82.072     212.252
  O      218.112     -79.582     211.744
  H      212.995     -83.240     215.352
  H      218.595     -82.100     211.282
  H      217.682     -85.812     210.486
  H      216.050     -83.930     210.518
  H      213.028     -83.933     211.914
  H      215.006     -83.063     214.091
  H      213.855     -80.974     214.237
  H      213.361     -80.764     211.456
  H      217.307     -88.620     212.894
  H      215.782     -80.316     211.137
  H      218.284     -88.007     211.592
  H      215.119     -79.423     212.527
  P      211.375     -80.258     213.782
  C      211.177     -77.950     212.608
  O      211.176     -79.363     212.466
  O      212.506     -79.480     214.604
  O      210.142     -80.465     214.600
  H      212.285     -79.476     215.553
  H      211.035     -77.495     211.650
  H      212.113     -77.633     213.018
  H      210.384     -77.657     213.263

 6  7  8  9  10  11  12  13  14  15  16  26  30  31  32  33  35 0
 6-311+G(2d,p)
 ****
 37  38 0
 6-311+G(2d,p)
 ****
 1  2  3  4  5  17  18  19  20  21  22  23  24  25 0
 3-21G
 ****
 27  28  29  34  36  39  40  41  42  43  44  45  46 0
 3-21G
 ****


