%nproc=1
%NoSave
%Mem=1900MB
#P OB98/GEN NMR

erre ene a

0 1
  C      102.737      44.053      79.187
  O      102.474      42.967      80.055
  H      102.231      44.940      79.576
  H      102.356      43.843      78.184
  H      103.811      44.255      79.144
  P      103.074      41.530      79.683
  C      100.843      40.553      78.822
  O      102.164      40.962      78.490
  C      100.105      40.079      77.573
  O       99.831      41.190      76.699
  C      100.875      39.055      76.740
  O      100.734      37.756      77.288
  C      100.171      39.202      75.402
  O       98.899      38.525      75.447
  C       99.951      40.725      75.326
  N      101.282      43.392      71.218
  C      100.133      42.669      71.470
  N       99.223      42.625      70.474
  N       99.903      42.036      72.591
  C      100.930      42.108      73.467
  C      102.124      42.777      73.326
  C      102.339      43.530      72.107
  O      103.334      44.204      71.855
  N      102.961      42.545      74.388
  C      102.252      41.780      75.196
  N      101.012      41.477      74.678
  O      103.246      40.573      80.823
  O      104.463      41.857      78.958
  H       99.084      37.570      75.505
  H      105.200      41.864      79.596
  H      101.408      43.853      70.332
  H      102.581      41.421      76.164
  H       99.020      40.981      74.809
  H      100.737      38.770      74.574
  H       99.406      42.964      69.542
  H      101.925      39.341      76.622
  H       98.400      42.052      70.619
  H       99.135      39.674      77.892
  H      100.332      41.414      79.264
  H      100.868      39.745      79.562
  P      101.902      36.658      77.159
  C      101.014      36.005      74.820
  O      102.120      36.453      75.585
  O      101.667      35.403      77.924
  O      103.229      37.443      77.578
  H      103.379      37.455      78.556
  H      101.304      35.914      73.794
  H      100.214      36.710      74.903
  H      100.690      35.053      75.185

 6  7  8  9  10  11  12  13  14  15  26  29  33  34 0
 6-311+G(2d,p)
 ****
 36  38  39  40  41 0
 6-311+G(2d,p)
 ****
 1  2  3  4  5  16  17  18  19  20  21  22  23  24  25 0
 3-21G
 ****
 27  28  30  31  32  35  37  42  43  44  45  46  47 0
 3-21G
 ****
 48  49 0
 3-21G
 ****


