%nproc=1
%NoSave
%Mem=1900MB
#P OB98/GEN NMR

erre ene a

0 1
  C      576.177     145.873     -38.219
  O      577.420     145.773     -38.936
  P      578.298     144.433     -39.011
  C      580.322     145.240     -37.612
  O      579.208     144.360     -37.689
  C      581.301     144.796     -36.519
  O      580.661     144.832     -35.224
  C      581.802     143.363     -36.649
  O      582.744     143.205     -37.694
  C      582.369     143.125     -35.245
  O      583.710     143.614     -35.133
  C      581.426     143.957     -34.359
  N      580.545     143.143     -33.535
  C      581.106     142.598     -32.374
  O      582.302     142.750     -32.130
  N      580.294     141.887     -31.525
  C      579.063     141.646     -31.862
  N      578.298     140.945     -30.978
  C      578.473     142.085     -33.139
  C      579.265     142.820     -33.920
  O      579.071     144.286     -40.280
  O      577.250     143.232     -38.825
  H      577.598     142.428     -39.258
  H      583.678     144.578     -35.313
  H      577.458     141.822     -33.402
  H      578.904     143.196     -34.873
  H      582.006     144.632     -33.717
  H      582.396     142.058     -34.987
  H      580.945     142.694     -36.809
  H      582.148     145.497     -36.513
  H      578.732     140.668     -30.103
  H      579.956     146.247     -37.370
  H      577.324     140.720     -31.127
  H      580.819     145.286     -38.587
  P      582.241     142.455     -39.021
  C      584.069     140.631     -39.310
  O      582.738     140.939     -38.935
  O      583.155     143.094     -40.172
  O      580.791     142.627     -39.315
  H      582.618     143.220     -40.984
  H      584.395     139.741     -38.769
  H      584.755     141.453     -39.076
  H      584.103     140.426     -40.381
  H      575.786     146.864     -38.320
  H      576.344     145.659     -37.184
  H      575.476     145.171     -38.620

 3  4  5  6  7  8  9  10  11  12  13  24  27  28  29  30  32 0
 6-311+G(2d,p)
 ****
 34  35 0
 6-311+G(2d,p)
 ****
 1  2  14  15  16  17  18  19  20  21  22  23  25  26 0
 3-21G
 ****
 31  33  36  37  38  39  40  41  42  43  44  45  46 0
 3-21G
 ****


