%nproc=1
%NoSave
%Mem=1900MB
#P OB98/GEN NMR

erre ene a

0 1
  C     -655.090    -534.055     220.871
  O     -654.097    -533.064     221.022
  H     -655.689    -533.854     219.980
  H     -654.603    -535.027     220.755
  H     -655.733    -534.083     221.759
  P     -654.601    -531.552     221.219
  C     -655.249    -531.416     218.702
  O     -655.676    -531.295     220.052
  C     -656.142    -530.566     217.805
  O     -657.524    -530.736     218.173
  C     -655.875    -529.070     217.888
  O     -654.769    -528.671     217.092
  C     -657.176    -528.519     217.326
  O     -657.180    -528.642     215.890
  C     -658.205    -529.469     217.944
  N     -661.959    -526.752     220.120
  C     -661.688    -527.031     218.827
  N     -660.657    -527.761     218.336
  C     -659.878    -528.222     219.321
  C     -660.036    -528.019     220.682
  C     -661.148    -527.242     221.081
  N     -661.428    -526.945     222.394
  N     -659.014    -528.618     221.395
  C     -658.278    -529.208     220.474
  N     -658.754    -528.990     219.208
  O     -653.350    -530.672     220.753
  O     -655.069    -531.199     222.592
  H     -658.106    -528.551     215.603
  H     -653.415    -529.771     221.124
  H     -662.365    -526.611     218.092
  H     -657.394    -529.806     220.676
  H     -659.052    -529.663     217.279
  H     -657.332    -527.460     217.556
  H     -655.762    -528.738     218.929
  H     -656.024    -530.922     216.771
  H     -655.316    -532.463     218.392
  H     -662.130    -526.241     222.555
  H     -660.741    -527.178     223.099
  H     -654.207    -531.083     218.625
  P     -653.956    -527.368     217.564
  C     -655.450    -525.625     216.321
  O     -655.019    -526.170     217.574
  O     -653.032    -527.038     216.292
  O     -653.159    -527.542     218.813
  H     -652.231    -526.560     216.567
  H     -656.154    -524.839     216.497
  H     -655.912    -526.394     215.738
  H     -654.605    -525.235     215.792

 6  7  8  9  10  11  12  13  14  15  25  28  32  33  34  35 0
 6-311+G(2d,p)
 ****
 36  39  40 0
 6-311+G(2d,p)
 ****
 1  2  3  4  5  16  17  18  19  20  21  22  23  24 0
 3-21G
 ****
 26  27  29  30  31  37  38  41  42  43  44  45  46  47 0
 3-21G
 ****
 48 0
 3-21G
 ****


