%nproc=1
%NoSave
%Mem=1900MB
#P OB98/GEN NMR

erre ene a

0 1
  C     1097.648      87.995     526.906
  O     1096.588      88.842     527.291
  H     1097.942      88.197     525.876
  H     1098.506      88.182     527.563
  H     1097.347      86.949     527.009
  P     1095.242      88.761     526.424
  C     1096.318      90.041     524.447
  O     1095.262      89.989     525.391
  C     1095.794      90.535     523.104
  O     1094.944      89.507     522.529
  C     1094.971      91.837     523.174
  O     1095.567      92.833     522.333
  C     1093.616      91.472     522.594
  O     1093.064      92.480     521.759
  C     1093.899      90.176     521.828
  N     1089.228      89.885     519.827
  C     1090.306      90.599     519.459
  N     1091.552      90.562     519.967
  C     1091.638      89.632     520.947
  C     1090.627      88.801     521.395
  C     1089.365      88.963     520.812
  N     1088.246      88.270     521.220
  N     1091.098      87.990     522.415
  C     1092.347      88.347     522.589
  N     1092.718      89.349     521.741
  O     1094.103      89.167     527.476
  O     1094.966      87.424     525.805
  H     1093.754      92.688     521.088
  H     1093.371      88.526     527.430
  H     1090.139      91.321     518.656
  H     1093.015      87.951     523.341
  H     1094.261      90.383     520.798
  H     1092.914      91.284     523.426
  H     1094.875      92.223     524.195
  H     1096.641      90.661     522.423
  H     1096.741      89.029     524.315
  H     1087.361      88.536     520.822
  H     1088.322      87.674     522.028
  H     1097.111      90.703     524.824
  P     1097.051      93.309     522.726
  C     1096.297      95.697     523.448
  O     1097.099      94.904     522.576
  O     1097.932      92.798     521.484
  O     1097.543      92.765     524.025
  H     1098.850      92.646     521.764
  H     1096.441      96.733     523.221
  H     1096.582      95.511     524.462
  H     1095.266      95.443     523.315

 6  7  8  9  10  11  12  13  14  15  25  28  32  33  34  35 0
 6-311+G(2d,p)
 ****
 36  39  40 0
 6-311+G(2d,p)
 ****
 1  2  3  4  5  16  17  18  19  20  21  22  23  24 0
 3-21G
 ****
 26  27  29  30  31  37  38  41  42  43  44  45  46  47  48 0
 3-21G
 ****


