%nproc=1
%NoSave
%Mem=1900MB
#P OB98/GEN NMR

erre ene a

0 1
  C      166.286      19.325    -198.817
  O      165.356      18.616    -199.612
  H      166.248      18.968    -197.785
  H      167.290      19.156    -199.212
  H      166.070      20.397    -198.848
  P      163.816      18.700    -199.173
  C      162.321      20.732    -198.571
  O      163.345      20.219    -199.413
  C      161.583      21.869    -199.278
  O      162.555      22.871    -199.668
  C      160.806      21.443    -200.536
  O      159.422      21.783    -200.403
  C      161.403      22.285    -201.653
  O      160.426      22.776    -202.572
  C      162.096      23.421    -200.910
  N      163.332      26.594    -204.703
  C      162.243      26.535    -203.905
  N      162.022      25.735    -202.844
  C      163.084      24.945    -202.615
  C      164.272      24.904    -203.325
  C      164.371      25.769    -204.429
  N      165.456      25.787    -205.277
  N      165.128      23.954    -202.798
  C      164.452      23.401    -201.812
  N      163.204      23.954    -201.678
  O      163.882      18.577    -197.578
  O      162.928      17.661    -199.771
  H      160.916      23.204    -203.298
  H      163.227      17.920    -197.272
  H      161.438      27.223    -204.160
  H      164.792      22.575    -201.199
  H      161.408      24.246    -200.679
  H      162.124      21.677    -202.211
  H      160.906      20.372    -200.753
  H      160.907      22.340    -198.557
  H      162.764      21.120    -197.648
  H      165.393      26.350    -206.110
  H      166.186      25.097    -205.146
  H      161.628      19.922    -198.314
  P      158.387      20.557    -200.280
  C      158.146      18.676    -198.493
  O      158.430      20.043    -198.759
  O      159.122      19.384    -201.084
  O      157.033      20.850    -200.829
  H      158.465      18.760    -201.441
  H      158.216      18.495    -197.441
  H      158.852      18.058    -199.008
  H      157.157      18.445    -198.830

 6  7  8  9  10  11  12  13  14  15  25  28  32  33  34  35 0
 6-311+G(2d,p)
 ****
 36  39  40 0
 6-311+G(2d,p)
 ****
 1  2  3  4  5  16  17  18  19  20  21  22  23  24 0
 3-21G
 ****
 26  27  29  30  31  37  38  41  42  43  44  45  46  47  48 0
 3-21G
 ****


