%nproc=1
%NoSave
%Mem=1900MB
#P OB98/GEN NMR

erre ene a

0 1
  C      -23.819     867.084    -672.073
  O      -23.952     865.864    -672.785
  P      -23.618     864.465    -672.075
  C      -26.038     863.628    -671.868
  O      -24.778     863.428    -672.499
  C      -27.189     863.196    -672.764
  O      -27.309     864.103    -673.890
  C      -27.026     861.767    -673.367
  O      -28.355     861.201    -673.448
  C      -26.487     862.037    -674.755
  O      -26.699     860.947    -675.655
  C      -27.277     863.305    -675.108
  N      -27.289     864.248    -680.160
  C      -28.022     863.395    -679.382
  N      -27.939     863.190    -678.044
  C      -26.988     863.975    -677.491
  C      -26.160     864.872    -678.146
  C      -26.336     865.019    -679.524
  N      -25.637     865.912    -680.328
  N      -25.272     865.452    -677.237
  C      -25.574     864.901    -676.084
  N      -26.637     864.058    -676.170
  O      -23.358     864.537    -670.610
  O      -22.342     863.925    -672.868
  H      -27.655     860.806    -675.745
  H      -21.538     864.017    -672.311
  H      -28.749     862.807    -679.925
  H      -25.056     865.088    -675.147
  H      -28.307     863.091    -675.406
  H      -25.415     862.223    -674.709
  H      -26.381     861.114    -672.772
  H      -28.136     863.267    -672.194
  H      -26.149     864.715    -671.668
  H      -25.934     866.032    -681.279
  H      -25.119     866.656    -679.852
  H      -26.074     863.101    -670.906
  P      -28.752     859.947    -672.537
  C      -31.083     860.452    -671.631
  O      -30.354     859.805    -672.648
  O      -28.177     859.940    -671.158
  O      -28.220     858.681    -673.411
  H      -28.171     857.895    -672.828
  H      -31.084     859.837    -670.714
  H      -32.124     860.592    -671.973
  H      -30.667     861.420    -671.394
  H      -24.085     867.900    -672.711
  H      -22.806     867.200    -671.750
  H      -24.466     867.072    -671.221

 3  4  5  6  7  8  9  10  11  12  22  25  29  30  31  32 0
 6-311+G(2d,p)
 ****
 33  36  37 0
 6-311+G(2d,p)
 ****
 1  2  13  14  15  16  17  18  19  20  21  23  24  26 0
 3-21G
 ****
 27  28  34  35  38  39  40  41  42  43  44  45  46  47  48 0
 3-21G
 ****


