%nproc=1
%NoSave
%Mem=1900MB
#P OB98/GEN NMR

erre ene a

0 1
  C        7.100      -5.658     250.299
  O        7.400      -4.272     250.329
  P        7.377      -3.461     251.712
  C        5.234      -2.375     250.793
  O        5.864      -2.963     251.925
  C        4.389      -1.172     251.210
  O        3.350      -1.623     252.111
  C        5.187      -0.093     251.934
  O        4.669       1.190     251.566
  C        4.885      -0.324     253.407
  O        5.034       0.885     254.164
  C        3.453      -0.870     253.334
  N       -0.172      -2.388     256.647
  C       -0.203      -1.507     255.619
  N        0.804      -1.131     254.798
  C        1.924      -1.817     255.087
  C        2.108      -2.747     256.099
  C        0.992      -3.027     256.908
  N        1.025      -3.937     257.944
  N        3.411      -3.213     256.105
  C        3.990      -2.591     255.103
  N        3.133      -1.743     254.451
  O        8.405      -2.388     251.833
  O        7.553      -4.582     252.840
  H        5.985       1.118     254.150
  H        8.114      -4.250     253.567
  H       -1.163      -1.037     255.437
  H        5.027      -2.705     254.817
  H        2.712      -0.064     253.303
  H        5.579      -1.067     253.812
  H        6.260      -0.140     251.719
  H        3.900      -0.765     250.318
  H        4.586      -3.126     250.330
  H        0.148      -4.162     258.391
  H        1.836      -4.536     258.028
  H        5.996      -2.080     250.063
  P        5.753       2.373     251.430
  C        5.160       3.674     253.605
  O        6.060       2.819     252.937
  O        5.309       3.434     250.478
  O        7.052       1.554     250.962
  H        7.005       0.615     251.246
  H        5.559       3.895     254.602
  H        4.191       3.184     253.723
  H        5.040       4.612     253.055
  H        7.168      -6.016     249.293
  H        6.108      -5.816     250.668
  H        7.798      -6.187     250.914

 3  4  5  6  7  8  9  10  11  12  22  25  29  30  31  32 0
 6-311+G(2d,p)
 ****
 33  36  37 0
 6-311+G(2d,p)
 ****
 1  2  13  14  15  16  17  18  19  20  21  23  24  26 0
 3-21G
 ****
 27  28  34  35  38  39  40  41  42  43  44  45  46  47  48 0
 3-21G
 ****


