%nproc=1
%NoSave
%Mem=1900MB
#P OB98/GEN NMR

erre ene a

0 1
  C      -30.975    -125.603     -42.673
  O      -30.204    -124.419     -42.895
  P      -29.712    -123.640     -41.580
  C      -27.686    -125.111     -40.919
  O      -28.128    -123.866     -41.436
  C      -26.157    -125.220     -40.951
  O      -25.663    -125.235     -42.322
  C      -25.441    -124.072     -40.231
  O      -24.257    -124.623     -39.638
  C      -25.042    -123.156     -41.373
  O      -24.006    -122.256     -40.987
  C      -24.658    -124.200     -42.420
  N      -22.492    -120.710     -45.355
  C      -22.406    -120.903     -43.991
  N      -21.582    -120.075     -43.314
  N      -23.068    -121.828     -43.345
  C      -23.823    -122.608     -44.158
  C      -23.978    -122.528     -45.522
  C      -23.265    -121.479     -46.218
  O      -23.302    -121.269     -47.424
  N      -24.807    -123.521     -45.993
  C      -25.198    -124.149     -44.897
  N      -24.589    -123.672     -43.770
  O      -30.334    -124.508     -40.389
  O      -30.160    -122.217     -41.524
  H      -23.176    -122.776     -40.914
  H      -31.140    -124.080     -40.047
  H      -21.973    -119.971     -45.798
  H      -25.897    -124.968     -44.869
  H      -23.677    -124.652     -42.217
  H      -25.905    -122.568     -41.706
  H      -21.005    -119.373     -43.756
  H      -26.044    -123.565     -39.472
  H      -21.469    -120.219     -42.319
  H      -25.873    -126.175     -40.492
  H      -28.113    -125.931     -41.500
  H      -28.069    -125.230     -39.899
  P      -24.299    -124.980     -38.078
  C      -26.116    -126.788     -37.726
  O      -24.748    -126.510     -37.950
  O      -25.579    -124.169     -37.555
  O      -23.073    -124.592     -37.317
  H      -25.393    -123.803     -36.670
  H      -26.342    -127.783     -38.116
  H      -26.765    -126.060     -38.220
  H      -26.316    -126.777     -36.651
  H      -31.245    -126.034     -43.614
  H      -31.861    -125.355     -42.127
  H      -30.396    -126.306     -42.112

 3  4  5  6  7  8  9  10  11  12  23  26  30  31 0
 6-311+G(2d,p)
 ****
 33  35  36  37  38 0
 6-311+G(2d,p)
 ****
 1  2  13  14  15  16  17  18  19  20  21  22  24  25 0
 3-21G
 ****
 27  28  29  32  34  39  40  41  42  43  44  45  46  47  48  49 0
 3-21G
 ****


