%nproc=1
%NoSave
%Mem=1900MB
#P OB98/GEN NMR

erre ene a

0 1
  C     1019.864     300.477     586.195
  O     1020.984     300.255     585.363
  H     1020.001     299.974     587.159
  H     1019.768     301.552     586.366
  H     1018.952     300.115     585.717
  P     1021.365     298.718     585.073
  C     1023.230     298.899     586.857
  O     1022.886     298.536     585.531
  C     1024.508     298.173     587.296
  O     1024.354     296.755     587.143
  C     1025.746     298.544     586.483
  O     1026.293     299.806     586.888
  C     1026.659     297.389     586.833
  O     1027.279     297.631     588.121
  C     1025.693     296.206     586.924
  N     1028.052     292.440     584.357
  C     1028.335     293.043     585.543
  N     1027.674     294.038     586.147
  C     1026.599     294.409     585.439
  C     1026.187     293.893     584.224
  C     1026.968     292.857     583.670
  N     1026.703     292.257     582.453
  N     1025.033     294.505     583.787
  C     1024.750     295.391     584.722
  N     1025.663     295.376     585.739
  O     1021.440     298.653     583.479
  O     1020.404     297.716     585.618
  H     1027.909     298.361     587.999
  H     1021.105     297.778     583.177
  H     1029.213     292.671     586.054
  H     1023.884     296.049     584.710
  H     1025.906     295.570     587.798
  H     1027.476     297.247     586.122
  H     1025.532     298.538     585.390
  H     1024.658     298.385     588.365
  H     1022.412     298.617     587.539
  H     1027.173     291.405     582.213
  H     1025.872     292.569     581.953
  H     1023.363     299.986     586.912
  P     1026.337     300.984     585.801
  C     1028.285     300.069     584.343
  O     1027.862     301.049     585.292
  O     1026.177     302.292     586.699
  O     1025.299     300.910     584.729
  H     1025.802     303.035     586.147
  H     1029.313     300.232     584.096
  H     1027.689     300.149     583.458
  H     1028.170     299.092     584.764

 6  7  8  9  10  11  12  13  14  15  25  28  32  33  34  35 0
 6-311+G(2d,p)
 ****
 36  39  40 0
 6-311+G(2d,p)
 ****
 1  2  3  4  5  16  17  18  19  20  21  22  23  24 0
 3-21G
 ****
 26  27  29  30  31  37  38  41  42  43  44  45  46  47  48 0
 3-21G
 ****


