%nproc=1
%NoSave
%Mem=1900MB
#P OB98/GEN NMR

erre ene a

0 1
  C      190.391     572.848     237.668
  O      191.394     572.273     236.848
  P      192.712     571.635     237.496
  C      195.096     572.432     237.986
  O      193.749     572.817     237.822
  C      195.872     573.464     238.815
  O      196.067     574.671     238.011
  C      195.179     573.881     240.126
  O      196.214     574.052     241.104
  C      194.549     575.219     239.763
  O      194.289     576.010     240.916
  C      195.594     575.783     238.798
  N      195.064     576.840     237.965
  C      195.487     578.149     238.248
  O      196.161     578.370     239.250
  N      195.109     579.164     237.391
  C      194.245     578.910     236.457
  N      193.946     579.930     235.596
  C      193.588     577.606     236.286
  C      194.072     576.602     237.036
  O      193.303     570.493     236.729
  O      192.240     571.152     238.960
  H      192.470     570.205     239.072
  H      195.119     576.128     241.415
  H      192.781     577.487     235.580
  H      193.672     575.602     236.967
  H      196.469     576.165     239.363
  H      193.600     575.055     239.249
  H      194.456     573.126     240.471
  H      196.855     573.058     239.025
  H      194.447     580.802     235.719
  H      195.550     572.350     237.000
  H      193.541     579.762     234.676
  H      195.151     571.444     238.466
  P      195.882     573.604     242.621
  C      194.852     574.837     244.669
  O      194.934     574.743     243.275
  O      197.287     573.906     243.346
  O      195.486     572.184     242.836
  H      197.359     573.331     244.141
  H      194.113     575.586     244.929
  H      195.816     575.123     245.092
  H      194.528     573.871     245.100
  H      189.597     573.217     237.054
  H      190.810     573.655     238.232
  H      190.009     572.106     238.337

 3  4  5  6  7  8  9  10  11  12  13  24  27  28  29  30  32 0
 6-311+G(2d,p)
 ****
 34  35 0
 6-311+G(2d,p)
 ****
 1  2  14  15  16  17  18  19  20  21  22  23  25  26 0
 3-21G
 ****
 31  33  36  37  38  39  40  41  42  43  44  45  46 0
 3-21G
 ****


