%nproc=1
%NoSave
%Mem=1900MB
#P OB98/GEN NMR

erre ene a

0 1
  C      -90.142     180.733    -355.269
  O      -90.353     179.378    -355.674
  P      -91.382     179.158    -356.886
  C      -93.152     177.821    -355.539
  O      -92.857     179.015    -356.255
  C      -94.579     177.343    -355.836
  O      -95.560     178.210    -355.191
  C      -94.918     177.314    -357.338
  O      -95.794     176.197    -357.543
  C      -95.669     178.630    -357.516
  O      -96.417     178.689    -358.722
  C      -96.478     178.637    -356.218
  N     -100.444     181.044    -354.078
  C     -100.171     179.730    -354.249
  N      -99.087     179.166    -354.833
  C      -98.242     180.117    -355.257
  C      -98.382     181.493    -355.155
  C      -99.547     181.956    -354.529
  N      -99.844     183.293    -354.367
  N      -97.292     182.142    -355.733
  C      -96.559     181.165    -356.245
  N      -97.045     179.930    -355.906
  O      -91.043     177.685    -357.407
  O      -91.269     180.189    -357.964
  H      -97.047     179.440    -358.685
  H      -90.471     177.724    -358.198
  H     -100.922     179.038    -353.869
  H      -95.673     181.298    -356.849
  H      -97.307     177.920    -356.248
  H      -94.956     179.459    -357.534
  H      -94.041     177.214    -357.984
  H      -94.702     176.338    -355.409
  H      -93.055     177.992    -354.464
  H     -100.712     183.527    -353.904
  H      -99.214     184.002    -354.700
  H      -92.408     177.052    -355.800
  P      -95.521     175.231    -358.803
  C      -97.936     175.803    -359.462
  O      -96.599     175.690    -359.904
  O      -96.181     173.868    -358.265
  O      -94.093     175.091    -359.235
  H      -97.081     174.022    -357.924
  H      -98.542     176.191    -360.282
  H      -97.998     176.486    -358.610
  H      -98.324     174.811    -359.174
  H      -89.442     180.759    -354.460
  H      -91.071     181.159    -354.951
  H      -89.755     181.295    -356.093

 3  4  5  6  7  8  9  10  11  12  22  25  29  30  31  32 0
 6-311+G(2d,p)
 ****
 33  36  37 0
 6-311+G(2d,p)
 ****
 1  2  13  14  15  16  17  18  19  20  21  23  24  26 0
 3-21G
 ****
 27  28  34  35  38  39  40  41  42  43  44  45  46  47  48 0
 3-21G
 ****


