%nproc=1
%NoSave
%Mem=1900MB
#P OB98/GEN NMR

erre ene a

0 1
  C     -105.369      -7.956     137.166
  O     -104.428      -6.980     137.549
  H     -106.313      -7.455     136.931
  H     -105.550      -8.656     137.985
  H     -105.029      -8.495     136.279
  P     -102.956      -7.441     137.994
  C     -100.639      -6.571     137.312
  O     -101.989      -6.219     137.585
  C      -99.864      -5.380     136.748
  O     -100.341      -5.081     135.408
  C     -100.003      -4.099     137.584
  O      -98.717      -3.509     137.783
  C     -100.851      -3.191     136.708
  O     -100.665      -1.808     136.994
  C     -100.414      -3.647     135.313
  N     -101.337      -3.204     134.277
  C     -101.036      -1.986     133.660
  O     -100.033      -1.354     133.995
  N     -101.901      -1.488     132.723
  C     -102.998      -2.124     132.457
  N     -103.826      -1.561     131.538
  C     -103.370      -3.400     133.104
  C     -102.501      -3.880     133.992
  O     -102.538      -8.776     137.479
  O     -102.967      -7.359     139.592
  H     -100.924      -1.646     137.928
  H     -102.256      -7.943     139.946
  H     -104.299      -3.889     132.851
  H     -102.689      -4.809     134.519
  H      -99.411      -3.270     135.072
  H     -101.912      -3.427     136.862
  H     -100.470      -4.269     138.554
  H      -98.811      -5.671     136.640
  H     -103.535      -0.683     131.124
  H     -100.632      -7.404     136.600
  H     -104.716      -1.951     131.269
  H     -100.170      -6.892     138.247
  P      -97.973      -3.878     139.157
  C      -95.435      -3.941     139.694
  O      -96.512      -3.214     139.121
  O      -97.691      -5.446     139.014
  O      -98.783      -3.573     140.372
  H      -98.257      -5.942     139.633
  H      -94.531      -3.376     139.596
  H      -95.327      -4.877     139.188
  H      -95.635      -4.117     140.730

 6  7  8  9  10  11  12  13  14  15  16  26  30  31  32  33  35 0
 6-311+G(2d,p)
 ****
 37  38 0
 6-311+G(2d,p)
 ****
 1  2  3  4  5  17  18  19  20  21  22  23  24  25 0
 3-21G
 ****
 27  28  29  34  36  39  40  41  42  43  44  45  46 0
 3-21G
 ****


