%nproc=1
%NoSave
%Mem=1900MB
#P OB98/GEN NMR

erre ene a

0 1
  C      126.390      60.853    -187.354
  O      126.874      60.651    -186.034
  P      125.792      60.373    -184.879
  C      127.475      60.805    -182.949
  O      126.286      61.222    -183.611
  C      127.924      61.859    -181.942
  O      128.386      63.039    -182.629
  C      126.833      62.336    -180.996
  O      126.642      61.451    -179.905
  C      127.424      63.651    -180.514
  O      128.412      63.400    -179.498
  C      128.095      64.184    -181.785
  N      127.049      69.134    -182.522
  C      127.883      68.510    -181.665
  N      128.098      67.185    -181.521
  C      127.312      66.483    -182.356
  C      126.386      66.981    -183.257
  C      126.272      68.378    -183.335
  N      125.442      69.015    -184.231
  N      125.770      65.954    -183.936
  C      126.317      64.855    -183.462
  N      127.263      65.123    -182.512
  O      126.100      58.861    -184.454
  O      124.371      60.564    -185.286
  H      127.932      63.081    -178.710
  H      125.310      58.462    -184.043
  H      128.463      69.159    -181.015
  H      126.069      63.853    -183.782
  H      129.048      64.682    -181.575
  H      126.676      64.318    -180.075
  H      125.896      62.530    -181.534
  H      128.770      61.446    -181.376
  H      128.264      60.661    -183.691
  H      125.554      70.008    -184.352
  H      125.021      68.458    -184.966
  H      127.286      59.851    -182.446
  P      125.129      61.203    -179.429
  C      126.015      60.265    -177.174
  O      125.183      61.204    -177.829
  O      124.876      59.671    -179.809
  O      124.133      62.118    -180.059
  H      123.924      59.506    -179.947
  H      126.175      60.597    -176.144
  H      126.987      60.186    -177.670
  H      125.528      59.287    -177.158
  H      127.215      61.026    -188.014
  H      125.738      61.701    -187.369
  H      125.853      59.984    -187.674

 3  4  5  6  7  8  9  10  11  12  22  25  29  30  31  32 0
 6-311+G(2d,p)
 ****
 33  36  37 0
 6-311+G(2d,p)
 ****
 1  2  13  14  15  16  17  18  19  20  21  23  24  26 0
 3-21G
 ****
 27  28  34  35  38  39  40  41  42  43  44  45  46  47  48 0
 3-21G
 ****


