%nproc=1
%NoSave
%Mem=1900MB
#P OB98/GEN NMR

erre ene a

0 1
  C      538.459     153.098    -339.698
  O      537.215     152.693    -339.160
  H      539.256     152.737    -339.041
  H      538.518     154.187    -339.749
  H      538.606     152.671    -340.694
  P      535.883     153.107    -339.945
  C      535.301     150.600    -340.194
  O      534.861     151.880    -339.756
  C      534.247     149.551    -339.877
  O      534.143     149.353    -338.456
  C      532.842     149.910    -340.366
  O      532.708     149.621    -341.743
  C      532.000     149.012    -339.474
  O      532.050     147.660    -339.961
  C      532.743     149.123    -338.133
  N      529.513     150.431    -334.450
  C      529.649     149.238    -335.132
  N      528.765     148.261    -334.808
  N      530.548     149.022    -336.051
  C      531.312     150.108    -336.314
  C      531.264     151.344    -335.726
  C      530.299     151.554    -334.661
  O      530.156     152.588    -334.026
  N      532.154     152.212    -336.301
  C      532.771     151.487    -337.211
  N      532.282     150.203    -337.270
  O      536.055     153.536    -341.369
  O      535.242     154.259    -339.041
  H      531.497     147.629    -340.764
  H      535.537     155.143    -339.336
  H      528.785     150.542    -333.761
  H      533.567     151.842    -337.855
  H      532.687     148.197    -337.549
  H      530.953     149.305    -339.436
  H      527.898     148.465    -334.327
  H      532.589     150.958    -340.141
  H      528.816     147.393    -335.326
  H      534.577     148.597    -340.309
  H      536.240     150.376    -339.672
  H      535.495     150.613    -341.273
  P      531.805     150.542    -342.705
  C      533.881     151.578    -343.849
  O      532.702     150.788    -344.008
  O      531.283     151.786    -342.068
  O      530.664     149.568    -343.245
  H      529.868     149.525    -342.659
  H      534.383     151.663    -344.790
  H      534.531     151.110    -343.139
  H      533.613     152.553    -343.499

 6  7  8  9  10  11  12  13  14  15  26  29  33  34 0
 6-311+G(2d,p)
 ****
 36  38  39  40  41 0
 6-311+G(2d,p)
 ****
 1  2  3  4  5  16  17  18  19  20  21  22  23  24  25 0
 3-21G
 ****
 27  28  30  31  32  35  37  42  43  44  45  46  47 0
 3-21G
 ****
 48  49 0
 3-21G
 ****


