%nproc=1
%NoSave
%Mem=1900MB
#P OB98/GEN NMR

erre ene a

0 1
  C      -99.155     211.707     100.249
  O      -99.492     211.505      98.891
  P     -101.009     211.255      98.443
  C     -101.043     208.914      99.486
  O     -101.230     209.673      98.300
  C     -101.670     207.523      99.362
  O     -101.380     206.758     100.561
  C     -103.194     207.538      99.171
  O     -103.514     206.483      98.255
  C     -103.717     207.217     100.558
  O     -105.037     206.692     100.531
  C     -102.636     206.250     101.054
  N     -102.627     206.121     102.502
  C     -103.549     205.236     103.066
  O     -104.407     204.703     102.360
  N     -103.480     204.989     104.416
  C     -102.693     205.707     105.157
  N     -102.606     205.385     106.476
  C     -101.888     206.826     104.626
  C     -101.867     206.950     103.301
  O     -101.459     212.054      97.265
  O     -101.870     211.624      99.744
  H     -102.556     212.275      99.499
  H     -105.648     207.385     100.204
  H     -101.347     207.476     105.299
  H     -101.286     207.722     102.812
  H     -102.779     205.253     100.613
  H     -103.726     208.129     101.167
  H     -103.562     208.488      98.772
  H     -101.189     207.008      98.523
  H     -103.140     204.588     106.798
  H     -101.523     209.447     100.312
  H     -101.810     205.662     107.051
  H      -99.974     208.836      99.713
  P     -104.126     206.877      96.821
  C     -106.367     205.893      97.692
  O     -105.469     206.026      96.608
  O     -103.103     206.145      95.822
  O     -104.191     208.336      96.501
  H     -103.113     206.607      94.963
  H     -107.181     205.232      97.388
  H     -106.787     206.866      97.959
  H     -105.864     205.456      98.560
  H      -98.099     211.855     100.336
  H      -99.443     210.849     100.819
  H      -99.668     212.570     100.619

 3  4  5  6  7  8  9  10  11  12  13  24  27  28  29  30  32 0
 6-311+G(2d,p)
 ****
 34  35 0
 6-311+G(2d,p)
 ****
 1  2  14  15  16  17  18  19  20  21  22  23  25  26 0
 3-21G
 ****
 31  33  36  37  38  39  40  41  42  43  44  45  46 0
 3-21G
 ****


