%nproc=1
%NoSave
%Mem=1900MB
#P OB98/GEN NMR

erre ene a

0 1
  C     -481.362     566.300     506.438
  O     -482.200     565.309     506.996
  H     -480.329     565.943     506.470
  H     -481.435     567.223     507.018
  H     -481.637     566.490     505.397
  P     -483.769     565.638     507.026
  C     -484.948     563.519     506.067
  O     -484.418     564.810     505.816
  C     -484.193     562.462     505.256
  O     -482.806     562.431     505.705
  C     -484.746     561.037     505.421
  O     -484.470     560.314     504.209
  C     -483.876     560.499     506.544
  O     -483.990     559.097     506.644
  C     -482.530     561.074     506.118
  N     -478.220     558.876     507.770
  C     -478.934     558.710     506.638
  N     -480.065     559.339     506.261
  C     -480.437     560.241     507.185
  C     -479.806     560.527     508.382
  C     -478.642     559.793     508.671
  N     -477.914     559.953     509.828
  N     -480.488     561.513     509.073
  C     -481.513     561.814     508.304
  N     -481.528     561.066     507.158
  O     -483.837     567.157     506.530
  O     -484.439     565.450     508.346
  H     -483.393     558.747     507.341
  H     -483.862     567.758     507.300
  H     -478.551     557.970     505.940
  H     -482.274     562.553     508.527
  H     -482.112     560.542     505.253
  H     -484.187     560.908     507.510
  H     -485.820     561.009     505.626
  H     -484.174     562.767     504.202
  H     -486.008     563.518     505.786
  H     -484.858     563.290     507.134
  H     -477.102     559.373     509.965
  H     -478.230     560.620     510.517
  P     -485.620     560.196     503.088
  C     -484.559     560.248     500.698
  O     -485.135     560.975     501.773
  O     -486.745     561.185     503.663
  O     -486.177     558.826     502.877
  H     -487.622     560.890     503.358
  H     -484.296     560.924     499.911
  H     -485.265     559.532     500.333
  H     -483.681     559.741     501.040

 6  7  8  9  10  11  12  13  14  15  25  28  32  33  34  35 0
 6-311+G(2d,p)
 ****
 36  37  40 0
 6-311+G(2d,p)
 ****
 1  2  3  4  5  16  17  18  19  20  21  22  23  24 0
 3-21G
 ****
 26  27  29  30  31  38  39 41  42  43  44  45  46  47  48 0
 3-21G
 ****


