%nproc=1
%NoSave
%Mem=1900MB
#P OB98/GEN NMR

erre ene a

0 1
  C     -159.879     193.902    -899.330
  O     -160.270     193.959    -897.970
  H     -159.573     194.909    -899.650
  H     -160.725     193.589    -899.950
  H     -159.040     193.220    -899.460
  P     -160.593     192.552    -897.260
  C     -163.114     193.191    -896.920
  O     -162.162     192.309    -897.480
  C     -164.431     193.144    -897.720
  O     -164.851     191.764    -897.840
  C     -165.581     193.929    -897.060
  O     -166.375     194.526    -898.100
  C     -166.380     192.853    -896.360
  O     -167.726     193.250    -896.140
  C     -166.194     191.659    -897.330
  N     -166.431     190.380    -896.660
  C     -167.761     189.921    -896.630
  O     -168.662     190.606    -897.130
  N     -168.033     188.734    -896.000
  C     -167.076     188.083    -895.410
  N     -167.413     186.927    -894.780
  C     -165.681     188.556    -895.370
  C     -165.423     189.679    -896.040
  O     -160.473     192.941    -895.710
  O     -159.699     191.428    -897.690
  H     -167.734     194.057    -895.570
  H     -160.915     193.781    -895.490
  H     -164.918     187.977    -894.850
  H     -164.415     190.087    -896.070
  H     -166.889     191.749    -898.170
  H     -165.925     192.620    -895.380
  H     -165.215     194.713    -896.380
  H     -164.228     193.509    -898.730
  H     -168.404     186.653    -894.800
  H     -162.725     194.221    -896.920
  H     -166.775     186.369    -894.220
  H     -163.287     192.899    -895.880
  P     -166.055     196.008    -898.610
  C     -167.995     197.068    -897.240
  O     -166.594     197.052    -897.500
  O     -166.438     196.320    -900.000
  O     -164.458     196.104    -898.410
  H     -164.098     196.583    -899.180
  H     -168.210     197.800    -896.490
  H     -168.305     196.103    -896.896
  H     -168.522     197.313    -898.139

 6  7  8  9  10  11  12  13  14  15  16  26  30  31  32  33  35 0
 6-311+G(2d,p)
 ****
 37  38 0
 6-311+G(2d,p)
 ****
 1  2  3  4  5  17  18  19  20  21  22  23  24  25 0
 3-21G
 ****
 27  28  29  34  36  39  40  41  42  43  44  45  46 0
 3-21G
 ****


