%nproc=1
%NoSave
%Mem=1900MB
#P OB98/GEN NMR

erre ene a

0 1
  C      -24.735     271.042      93.318
  O      -25.764     271.917      93.735
  H      -24.109     271.559      92.589
  H      -25.159     270.148      92.852
  H      -24.117     270.757      94.175
  P      -26.834     271.327      94.773
  C      -27.141     269.136      93.448
  O      -26.672     269.733      94.653
  C      -27.864     267.823      93.752
  O      -28.421     267.309      92.513
  C      -26.949     266.739      94.333
  O      -27.683     265.969      95.286
  C      -26.634     265.870      93.125
  O      -26.245     264.550      93.494
  C      -27.944     265.961      92.346
  N      -28.165     262.230      88.889
  C      -28.575     262.298      90.173
  N      -28.497     263.345      91.020
  C      -27.981     264.423      90.395
  C      -27.519     264.506      89.095
  C      -27.618     263.333      88.323
  N      -27.172     263.241      87.025
  N      -27.019     265.767      88.840
  C      -27.183     266.438      89.966
  N      -27.743     265.658      90.941
  O      -28.229     271.836      94.623
  O      -26.138     271.637      96.180
  H      -26.015     264.056      92.679
  H      -25.194     271.388      96.175
  H      -29.014     261.389      90.579
  H      -26.901     267.472      90.128
  H      -28.709     265.269      92.722
  H      -25.809     266.314      92.554
  H      -26.047     267.141      94.795
  H      -28.710     268.030      94.418
  H      -26.301     268.944      92.771
  H      -27.284     262.363      86.546
  H      -26.767     264.053      86.581
  H      -27.822     269.846      92.965
  P      -27.583     266.350      96.840
  C      -26.712     264.136      97.830
  O      -26.404     265.485      97.507
  O      -28.871     266.346      97.591
  O      -26.945     267.822      96.802
  H      -27.396     268.383      97.462
  H      -25.853     263.668      98.265
  H      -26.992     263.611      96.941
  H      -27.523     264.113      98.528

 6  7  8  9  10  11  12  13  14  15  25  28  32  33  34  35 0
 6-311+G(2d,p)
 ****
 36  39  40 0
 6-311+G(2d,p)
 ****
 1  2  3  4  5  16  17  18  19  20  21  22  23  24 0
 3-21G
 ****
 26  27  29  30  31  37  38  41  42  43  44  45  46  47 0
 3-21G
 ****
 48 0
 3-21G
 ****


