%nproc=1
%NoSave
%Mem=1900MB
#P OB98/GEN NMR

erre ene a

0 1
  C      161.291     -22.987      39.655
  O      162.180     -24.028      39.305
  H      161.778     -22.343      40.392
  H      160.372     -23.387      40.092
  H      161.050     -22.387      38.772
  P      161.608     -25.250      38.434
  C      163.514     -24.914      36.723
  O      162.105     -24.974      36.930
  C      163.886     -23.738      35.815
  O      163.658     -22.490      36.501
  C      165.353     -23.711      35.417
  O      165.731     -24.748      34.536
  C      165.552     -22.260      35.001
  O      165.206     -22.007      33.643
  C      164.566     -21.521      35.938
  N      165.259     -20.760      36.971
  C      165.455     -19.411      36.702
  O      165.096     -18.867      35.656
  N      166.119     -18.699      37.661
  C      166.641     -19.209      38.814
  O      167.265     -18.526      39.620
  C      166.426     -20.648      39.034
  C      165.754     -21.350      38.117
  O      160.134     -25.498      38.550
  O      162.506     -26.494      38.889
  H      165.677     -22.668      33.099
  H      162.087     -27.349      38.628
  H      166.262     -17.717      37.488
  H      166.826     -21.088      39.939
  H      165.582     -22.414      38.255
  H      163.950     -20.819      35.361
  H      166.591     -21.946      35.130
  H      165.953     -23.854      36.324
  H      163.236     -23.765      34.933
  H      163.819     -25.849      36.243
  H      164.025     -24.829      37.688
  P      166.699     -25.947      34.957
  C      165.441     -28.149      34.389
  O      165.788     -27.201      35.391
  O      167.880     -25.593      35.803
  O      167.260     -26.419      33.519
  H      168.181     -26.717      33.647
  H      164.838     -28.920      34.821
  H      166.332     -28.579      33.981
  H      164.892     -27.661      33.611

 6  7  8  9  10  11  12  13  14  15  16  26  31  32  33  34  35 0
 6-311+G(2d,p)
 ****
 36  37 0
 6-311+G(2d,p)
 ****
 1  2  3  4  5  17  18  19  20  21  22  23  24  25 0
 3-21G
 ****
 27  28  29  30  38  39  40  41  42  43  44  45 0
 3-21G
 ****


