%nproc=1
%NoSave
%Mem=1900MB
#P OB98/GEN NMR

erre ene a

0 1
  C       10.236    -247.479     -24.868
  O       10.998    -248.135     -23.874
  H       10.451    -246.408     -24.864
  H       10.504    -247.888     -25.846
  H        9.168    -247.645     -24.696
  P       10.778    -247.653     -22.359
  C       12.218    -245.492     -22.526
  O       12.091    -246.804     -21.994
  C       13.374    -244.778     -21.835
  O       13.588    -243.480     -22.436
  C       13.136    -244.514     -20.351
  O       13.424    -245.643     -19.544
  C       14.128    -243.391     -20.102
  O       15.459    -243.929     -20.008
  C       13.979    -242.556     -21.384
  N       13.145    -237.516     -21.720
  C       14.249    -238.264     -21.939
  N       14.383    -239.603     -21.848
  C       13.220    -240.176     -21.501
  C       12.012    -239.543     -21.252
  C       11.999    -238.143     -21.367
  N       10.886    -237.373     -21.115
  N       11.046    -240.466     -20.899
  C       11.657    -241.632     -20.954
  N       12.981    -241.505     -21.282
  O       10.966    -248.992     -21.501
  O        9.490    -246.953     -22.077
  H       15.668    -244.327     -20.873
  H       10.635    -248.862     -20.592
  H       15.142    -237.714     -22.220
  H       11.192    -242.589     -20.755
  H       14.920    -242.082     -21.690
  H       13.932    -242.853     -19.171
  H       12.122    -244.142     -20.168
  H       14.286    -245.370     -21.988
  H       11.287    -244.943     -22.349
  H       11.014    -236.375     -21.079
  H       10.072    -237.815     -20.711
  H       12.402    -245.552     -23.602
  P       12.294    -246.117     -18.505
  C       13.288    -244.944     -16.410
  O       13.000    -246.175     -17.063
  O       12.090    -247.659     -18.877
  O       11.018    -245.343     -18.577
  H       11.167    -247.936     -18.720
  H       13.754    -245.141     -15.467
  H       12.379    -244.402     -16.253
  H       13.948    -244.363     -17.019

 6  7  8  9  10  11  12  13  14  15  25  28  32  33  34  35 0
 6-311+G(2d,p)
 ****
 36  39  40 0
 6-311+G(2d,p)
 ****
 1  2  3  4  5  16  17  18  19  20  21  22  23  24 0
 3-21G
 ****
 26  27  29  30  31  37  38  41  42  43  44  45  46  47 0
 3-21G
 ****
 48 0
 3-21G
 ****


