%nproc=1
%NoSave
%Mem=1900MB
#P OB98/GEN NMR

erre ene a

0 1
  C      -95.413     129.691    -344.617
  O      -96.331     130.351    -343.765
  H      -94.939     128.881    -344.056
  H      -94.634     130.381    -344.963
  H      -95.937     129.263    -345.474
  P      -96.968     131.737    -344.271
  C      -98.621     131.664    -342.283
  O      -97.612     132.414    -342.959
  C      -99.203     132.469    -341.115
  O      -98.298     132.437    -339.989
  C      -99.405     133.944    -341.426
  O     -100.439     134.201    -342.361
  C      -99.475     134.562    -340.039
  O     -100.779     134.535    -339.466
  C      -98.521     133.641    -339.230
  N      -97.275     134.308    -338.879
  C      -97.399     135.467    -338.114
  O      -98.482     135.937    -337.755
  N      -96.231     136.102    -337.798
  C      -94.980     135.724    -338.213
  O      -93.964     136.365    -337.932
  C      -94.914     134.511    -339.036
  C      -96.051     133.867    -339.331
  O      -97.919     131.634    -345.430
  O      -95.692     132.655    -344.567
  H     -100.724     134.990    -338.602
  H      -95.934     133.432    -345.129
  H      -96.290     136.934    -337.236
  H      -93.942     134.185    -339.392
  H      -96.032     132.966    -339.943
  H      -99.008     133.332    -338.290
  H      -99.157     135.612    -340.051
  H      -98.483     134.319    -341.888
  H     -100.143     131.994    -340.808
  H      -98.152     130.754    -341.893
  H      -99.412     131.388    -342.985
  P     -100.367     135.371    -343.445
  C     -101.099     133.860    -345.428
  O     -101.380     135.010    -344.644
  O      -99.003     135.891    -343.790
  O     -101.150     136.561    -342.686
  H     -100.732     137.409    -342.945
  H     -101.852     133.748    -346.180
  H     -101.090     132.994    -344.800
  H     -100.143     133.972    -345.895

 6  7  8  9  10  11  12  13  14  15  16  26  31  32  33  34  35 0
 6-311+G(2d,p)
 ****
 36  37 0
 6-311+G(2d,p)
 ****
 1  2  3  4  5  17  18  19  20  21  22  23  24  25 0
 3-21G
 ****
 27  28  29  30  38  39  40  41  42  43  44  45 0
 3-21G
 ****


