%nproc=1
%NoSave
%Mem=1900MB
#P OB98/GEN NMR

erre ene a

0 1
  C       60.161     120.095    -508.025
  O       58.908     120.745    -507.817
  P       58.855     121.768    -506.575
  C       57.897     121.759    -504.165
  O       57.993     121.077    -505.413
  C       57.377     120.817    -503.072
  O       56.036     120.328    -503.403
  C       58.263     119.572    -502.838
  O       58.211     119.275    -501.441
  C       57.532     118.510    -503.644
  O       57.937     117.187    -503.312
  C       56.086     118.881    -503.319
  N       54.398     114.454    -505.236
  C       55.399     114.751    -504.377
  N       55.786     115.954    -503.928
  C       55.023     116.927    -504.439
  C       53.974     116.798    -505.338
  C       53.660     115.488    -505.742
  N       52.663     115.178    -506.640
  N       53.435     118.035    -505.653
  C       54.203     118.907    -505.014
  N       55.123     118.276    -504.214
  O       57.906     122.952    -507.109
  O       60.198     122.258    -506.151
  H       57.427     116.545    -503.843
  H       58.457     123.710    -507.420
  H       55.977     113.901    -504.016
  H       54.150     119.973    -505.114
  H       55.803     118.596    -502.297
  H       57.742     118.660    -504.712
  H       59.314     119.718    -503.139
  H       57.291     121.393    -502.128
  H       57.213     122.620    -504.253
  H       52.518     114.214    -506.875
  H       52.094     115.917    -507.036
  H       58.890     122.160    -503.900
  P       59.460     119.673    -500.517
  C       61.939     118.964    -500.447
  O       60.689     118.797    -501.104
  O       59.122     118.866    -499.178
  O       59.692     121.144    -500.300
  H       58.895     117.935    -499.375
  H       62.653     118.272    -500.883
  H       61.835     118.755    -499.371
  H       62.309     119.987    -500.611
  H       60.088     119.442    -508.869
  H       60.417     119.527    -507.155
  H       60.918     120.829    -508.207

 3  4  5  6  7  8  9  10  11  12  22  25  29  30  31  32 0
 6-311+G(2d,p)
 ****
 33  36  37 0
 6-311+G(2d,p)
 ****
 1  2  13  14  15  16  17  18  19  20  21  23  24  26 0
 3-21G
 ****
 27  28  34  35  38  39  40  41  42  43  44  45  46  47  48 0
 3-21G
 ****


