%nproc=1
%NoSave
%Mem=1900MB
#P OB98/GEN NMR

erre ene a

0 1
  C        3.828     -55.788      38.909
  O        3.106     -56.095      40.106
  P        1.523     -55.825      40.089
  C        1.702     -53.751      41.634
  O        1.275     -54.264      40.379
  C        0.916     -52.492      42.021
  O        1.261     -51.377      41.151
  C       -0.604     -52.665      41.941
  O       -1.191     -51.863      42.972
  C       -0.946     -52.056      40.595
  O       -2.327     -51.709      40.511
  C        0.034     -50.885      40.569
  N        0.271     -46.686      37.673
  C        0.022     -46.865      38.986
  N       -0.044     -48.024      39.682
  C        0.222     -49.068      38.878
  C        0.486     -49.044      37.516
  C        0.503     -47.780      36.905
  N        0.731     -47.599      35.559
  N        0.661     -50.327      37.031
  C        0.502     -51.108      38.082
  N        0.266     -50.392      39.225
  O        1.015     -56.541      41.428
  O        0.830     -56.368      38.884
  H       -2.471     -50.900      41.049
  H        0.524     -57.354      41.204
  H       -0.150     -45.958      39.559
  H        0.540     -52.185      38.071
  H       -0.314     -50.035      41.172
  H       -0.722     -52.771      39.793
  H       -0.950     -53.699      42.033
  H        1.199     -52.209      43.044
  H        2.768     -53.509      41.596
  H        0.700     -46.662      35.191
  H        0.858     -48.407      34.969
  H        1.598     -54.534      42.395
  P       -1.708     -52.641      44.277
  C       -3.932     -53.083      43.017
  O       -2.872     -53.623      43.780
  O       -2.489     -51.511      45.105
  O       -0.620     -53.274      45.083
  H       -2.495     -51.736      46.054
  H       -4.187     -53.786      42.219
  H       -3.672     -52.121      42.567
  H       -4.804     -52.948      43.662
  H        4.865     -56.011      39.051
  H        3.715     -54.749      38.681
  H        3.444     -56.374      38.101

 3  4  5  6  7  8  9  10  11  12  22  25  29  30  31  32 0
 6-311+G(2d,p)
 ****
 33  36  37 0
 6-311+G(2d,p)
 ****
 1  2  13  14  15  16  17  18  19  20  21  23  24  26 0
 3-21G
 ****
 27  28  34  35  38  39  40  41  42  43  44  45  46  47  48 0
 3-21G
 ****


