%nproc=1
%NoSave
%Mem=1900MB
#P OB98/GEN NMR

erre ene a

0 1
  C     -772.906       8.837     411.359
  O     -771.497       8.792     411.465
  H     -773.247       7.925     410.859
  H     -773.213       9.693     410.749
  H     -773.374       8.889     412.345
  P     -770.757       9.943     412.294
  C     -770.191       8.368     414.258
  O     -770.865       9.552     413.846
  C     -771.065       7.595     415.252
  O     -772.265       7.119     414.596
  C     -770.392       6.356     415.829
  O     -769.441       6.696     416.817
  C     -771.591       5.584     416.346
  O     -772.016       6.084     417.620
  C     -772.648       5.882     415.254
  N     -772.787       4.800     414.285
  C     -773.955       4.038     414.363
  O     -774.815       4.230     415.219
  N     -774.075       3.034     413.443
  C     -773.120       2.646     412.545
  O     -773.238       1.678     411.802
  C     -771.903       3.464     412.516
  C     -771.788       4.485     413.368
  O     -771.164      11.342     411.969
  O     -769.197       9.699     411.975
  H     -772.219       7.034     417.499
  H     -768.894      10.376     411.342
  H     -774.906       2.461     413.497
  H     -771.123       3.202     411.807
  H     -770.893       5.109     413.370
  H     -773.630       6.067     415.705
  H     -771.382       4.527     416.462
  H     -769.912       5.778     415.029
  H     -771.362       8.283     416.055
  H     -769.252       8.650     414.742
  H     -769.973       7.756     413.376
  P     -767.906       6.275     416.639
  C     -766.680       8.460     417.199
  O     -767.085       7.570     416.164
  O     -767.676       5.045     415.819
  O     -767.392       6.055     418.139
  H     -767.095       5.132     418.256
  H     -766.144       9.282     416.773
  H     -766.047       7.941     417.888
  H     -767.544       8.826     417.713

 6  7  8  9  10  11  12  13  14  15  16  26  31  32  33  34  35 0
 6-311+G(2d,p)
 ****
 36  37 0
 6-311+G(2d,p)
 ****
 1  2  3  4  5  17  18  19  20  21  22  23  24  25 0
 3-21G
 ****
 27  28  29  30  38  39  40  41  42  43  44  45 0
 3-21G
 ****


