%nproc=1
%NoSave
%Mem=1900MB
#P OB98/GEN NMR

erre ene a

0 1
  C       29.336     213.246      50.469
  O       30.038     212.049      50.844
  P       31.011     211.345      49.771
  C       33.328     212.066      50.757
  O       32.408     211.016      50.488
  C       34.765     211.563      50.603
  O       35.700     212.665      50.669
  C       35.215     210.593      51.685
  O       34.680     209.293      51.490
  C       36.728     210.656      51.540
  O       37.179     209.790      50.483
  C       36.951     212.137      51.163
  N       37.462     212.928      52.279
  C       38.833     212.863      52.507
  O       39.590     212.137      51.860
  N       39.304     213.636      53.534
  C       38.548     214.396      54.377
  O       39.029     215.053      55.296
  C       37.099     214.360      54.139
  C       36.629     213.633      53.123
  O       31.408     212.577      48.825
  O       30.405     210.239      48.975
  H       36.525     209.866      49.760
  H       31.611     212.247      47.930
  H       40.300     213.624      53.699
  H       36.462     214.932      54.805
  H       35.559     213.599      52.929
  H       37.656     212.209      50.326
  H       37.250     210.349      52.449
  H       34.933     210.981      52.671
  H       34.859     211.098      49.606
  H       33.181     212.420      51.786
  H       33.131     212.895      50.069
  P       34.195     208.505      52.805
  C       32.335     210.252      53.365
  O       32.661     208.929      53.005
  O       35.005     209.290      53.944
  O       34.472     207.039      52.739
  H       35.111     210.231      53.732
  H       33.038     210.973      52.932
  H       32.346     210.344      54.455
  H       31.331     210.477      53.002
  H       28.738     213.581      51.291
  H       28.705     213.041      49.629
  H       30.042     214.007      50.208

 3  4  5  6  7  8  9  10  11  12  13  23  28  29  30  31  32 0
 6-311+G(2d,p)
 ****
 33  34 0
 6-311+G(2d,p)
 ****
 1  2  14  15  16  17  18  19  20  21  22  24  25  26 0
 3-21G
 ****
 27  35  36  37  38  39  40  41  42  43  44  45 0
 3-21G
 ****


