%nproc=1
%NoSave
%Mem=1900MB
#P OB98/GEN NMR

erre ene a

0 1
  C      176.073     260.234      22.591
  O      175.242     259.626      21.590
  P      175.599     258.148      21.069
  C      173.249     257.004      21.224
  O      174.286     257.510      20.397
  C      171.882     257.372      20.639
  O      171.648     258.797      20.756
  C      171.733     257.067      19.154
  O      171.520     255.680      18.920
  C      170.533     257.932      18.786
  O      169.300     257.276      19.120
  C      170.753     259.171      19.680
  N      171.259     260.319      18.937
  C      170.314     261.102      18.292
  O      169.113     260.840      18.271
  N      170.805     262.197      17.625
  C      172.122     262.534      17.489
  O      172.498     263.515      16.865
  C      173.078     261.619      18.129
  C      172.614     260.568      18.805
  O      175.699     257.324      22.441
  O      176.864     258.022      20.282
  H      169.324     257.110      20.085
  H      176.311     256.574      22.326
  H      170.132     262.797      17.169
  H      174.133     261.838      18.027
  H      173.308     259.882      19.285
  H      169.808     259.454      20.163
  H      170.498     258.161      17.716
  H      172.614     257.420      18.609
  H      171.109     256.852      21.220
  H      173.338     257.440      22.222
  H      173.354     255.920      21.306
  P      172.390     255.009      17.746
  C      173.726     253.305      19.210
  O      172.707     253.524      18.261
  O      173.772     255.808      17.896
  O      171.750     255.124      16.404
  H      173.960     256.039      18.823
  H      173.811     254.137      19.910
  H      174.682     253.163      18.694
  H      173.492     252.394      19.770
  H      175.698     261.209      22.822
  H      177.074     260.315      22.222
  H      176.066     259.631      23.475

 3  4  5  6  7  8  9  10  11  12  13  23  28  29  30  31  32 0
 6-311+G(2d,p)
 ****
 33  34 0
 6-311+G(2d,p)
 ****
 1  2  14  15  16  17  18  19  20  21  22  24  25  26 0
 3-21G
 ****
 27  35  36  37  38  39  40  41  42  43  44  45 0
 3-21G
 ****


