%nproc=1
%NoSave
%Mem=1900MB
#P OB98/GEN NMR

erre ene a

0 1
  C       47.661     213.693    -526.238
  O       48.636     213.625    -527.264
  P       49.266     212.194    -527.615
  C       51.737     212.556    -526.941
  O       50.800     212.447    -528.007
  C       53.052     213.149    -527.430
  O       53.655     212.233    -528.396
  C       52.918     214.510    -528.127
  O       53.982     215.376    -527.685
  C       53.173     214.200    -529.593
  O       53.662     215.331    -530.311
  C       54.169     213.048    -529.458
  N       55.785     213.208    -534.238
  C       55.977     214.117    -533.225
  N       56.629     215.256    -533.547
  N       55.545     213.933    -532.002
  C       54.934     212.732    -531.817
  C       54.698     211.743    -532.751
  C       55.115     211.986    -534.115
  O       54.910     211.267    -535.082
  N       54.061     210.671    -532.186
  C       53.902     211.000    -530.911
  N       54.370     212.269    -530.659
  O       48.570     211.821    -528.996
  O       49.027     211.124    -526.580
  H       54.547     215.531    -529.956
  H       48.115     210.957    -528.929
  H       56.122     213.406    -535.167
  H       53.434     210.377    -530.160
  H       55.152     213.437    -529.139
  H       52.236     213.868    -530.057
  H       57.013     215.443    -534.460
  H       51.953     215.010    -527.974
  H       56.788     215.925    -532.802
  H       53.746     213.204    -526.583
  H       51.926     211.571    -526.516
  H       51.310     213.202    -526.159
  P       53.521     216.649    -526.796
  C       54.113     218.483    -528.567
  O       54.409     217.876    -527.313
  O       54.127     216.320    -525.347
  O       52.044     216.865    -526.766
  H       53.607     216.782    -524.655
  H       53.154     218.112    -528.969
  H       54.910     218.253    -529.268
  H       54.045     219.560    -528.425
  H       47.337     214.706    -526.120
  H       48.085     213.345    -525.319
  H       46.824     213.079    -526.500

 3  4  5  6  7  8  9  10  11  12  23  26  30  31  33  0
 6-311+G(2d,p)
 ****
 35  36  37  38 0
 6-311+G(2d,p)
 ****
 1  2  13  14  15  16  17  18  19  20  21  22  24  25  27  28  29 0
 3-21G
 ****
 32  34  39  40  41  42  43  44  45  46  47  48  49 0
 3-21G
 ****


