%nproc=1
%NoSave
%Mem=1900MB
#P OB98/GEN NMR

erre ene a

0 1
  C      302.919    -298.495      98.139
  O      304.279    -298.849      97.838
  P      305.015    -298.144      96.589
  C      307.347    -297.817      97.711
  O      306.605    -298.403      96.655
  C      308.621    -298.636      98.015
  O      308.261    -299.894      98.649
  C      309.463    -298.984      96.780
  O      310.836    -299.016      97.194
  C      308.991    -300.388      96.440
  O      309.900    -301.112      95.622
  C      308.813    -300.960      97.855
  N      307.976    -302.161      97.919
  C      308.613    -303.401      97.899
  O      309.826    -303.562      97.776
  N      307.785    -304.496      98.004
  C      306.418    -304.466      98.081
  O      305.736    -305.483      98.141
  C      305.800    -303.136      98.064
  C      306.598    -302.060      97.991
  O      304.906    -296.591      96.975
  O      304.393    -298.392      95.255
  H      309.475    -301.965      95.410
  H      304.614    -296.082      96.194
  H      308.228    -305.403      98.007
  H      304.727    -303.071      98.129
  H      306.168    -301.066      97.989
  H      309.799    -301.188      98.279
  H      308.038    -300.333      95.901
  H      309.331    -298.276      95.959
  H      309.219    -298.074      98.745
  H      306.734    -297.764      98.610
  H      307.628    -296.794      97.423
  P      311.710    -297.672      97.065
  C      312.977    -297.837      99.354
  O      313.034    -297.881      97.941
  O      310.832    -296.669      97.965
  O      311.905    -297.192      95.661
  H      310.549    -297.072      98.808
  H      312.084    -298.344      99.737
  H      312.967    -296.797      99.686
  H      313.866    -298.330      99.755
  H      302.586    -299.051      98.991
  H      302.297    -298.723      97.299
  H      302.862    -297.448      98.352

 3  4  5  6  7  8  9  10  11  12  13  23  28  29  30  31  32 0
 6-311+G(2d,p)
 ****
 33  34 0
 6-311+G(2d,p)
 ****
 1  2  14  15  16  17  18  19  20  21  22  24  25  26 0
 3-21G
 ****
 27  35  36  37  38  39  40  41  42  43  44  45 0
 3-21G
 ****


