%nproc=1
%NoSave
%Mem=1900MB
#P OB98/GEN NMR

erre ene a

0 1
  C       -4.609     137.646     140.429
  O       -5.453     138.774     140.548
  H       -3.959     137.601     141.305
  H       -3.992     137.734     139.532
  H       -5.205     136.731     140.382
  P       -6.520     138.996     139.371
  C       -5.142     140.803     138.092
  O       -5.673     139.486     138.099
  C       -4.313     141.033     136.824
  O       -5.167     140.809     135.664
  C       -3.755     142.461     136.702
  O       -2.519     142.407     135.971
  C       -4.815     143.134     135.846
  O       -4.320     144.334     135.301
  C       -5.103     142.006     134.862
  N       -8.169     140.009     131.311
  C       -7.044     139.545     131.896
  N       -6.288     140.135     132.845
  C       -6.818     141.318     133.201
  C       -7.953     141.924     132.693
  C       -8.644     141.217     131.694
  N       -9.778     141.695     131.077
  N       -8.159     143.152     133.294
  C       -7.167     143.279     134.153
  N       -6.335     142.196     134.132
  O       -7.307     140.310     139.833
  O       -7.440     137.853     139.110
  H       -4.197     145.012     135.996
  H       -8.102     140.061     140.340
  H       -6.706     138.569     131.558
  H       -7.000     144.130     134.801
  H       -4.300     141.877     134.126
  H       -5.701     143.381     136.437
  H       -3.591     142.947     137.667
  H       -3.511     140.286     136.777
  H       -4.512     140.929     138.978
  H       -5.962     141.525     138.126
  H      -10.197     141.138     130.351
  H      -10.126     142.610     131.326
  P       -1.215     143.112     136.589
  C       -1.757     145.395     135.447
  O       -1.406     144.704     136.636
  O       -0.147     142.934     135.407
  O       -0.693     142.501     137.849
  H        0.702     142.626     135.774
  H       -1.843     146.441     135.655
  H       -2.693     145.025     135.083
  H       -1.000     145.240     134.707

 6  7  8  9  10  11  12  13  14  15  25  28  32  33  34  35 0
 6-311+G(2d,p)
 ****
 36  37  40 0
 6-311+G(2d,p)
 ****
 1  2  3  4  5  16  17  18  19  20  21  22  23  24 0
 3-21G
 ****
 26  27  29  30  31  38  39 41  42  43  44  45  46  47  48 0
 3-21G
 ****


