%nproc=1
%NoSave
%Mem=1900MB
#P OB98/GEN NMR

erre ene a

0 1
  C       35.176     128.815    -223.009
  O       34.452     127.671    -222.603
  H       35.037     129.602    -222.264
  H       34.806     129.173    -223.974
  H       36.243     128.581    -223.082
  P       34.509     126.402    -223.584
  C       36.957     125.767    -223.013
  O       36.050     126.230    -224.001
  C       37.711     124.540    -223.516
  O       36.889     123.355    -223.409
  C       38.161     124.630    -224.969
  O       39.373     125.356    -225.086
  C       38.321     123.158    -225.321
  O       39.580     122.635    -224.851
  C       37.148     122.516    -224.566
  N       34.344     119.288    -227.251
  C       35.493     119.075    -226.518
  N       35.999     117.821    -226.551
  N       36.098     120.003    -225.827
  C       35.496     121.212    -225.916
  C       34.347     121.548    -226.594
  C       33.670     120.501    -227.330
  O       32.613     120.612    -227.945
  N       34.040     122.872    -226.429
  C       35.022     123.347    -225.684
  N       35.940     122.380    -225.362
  O       33.824     126.940    -224.929
  O       33.835     125.172    -223.080
  H       39.534     122.506    -223.889
  H       33.379     126.199    -225.379
  H       33.914     118.528    -227.748
  H       35.115     124.373    -225.359
  H       37.394     121.516    -224.193
  H       38.302     122.996    -226.400
  H       35.783     117.182    -227.303
  H       37.374     125.069    -225.593
  H       36.855     117.662    -226.035
  H       38.575     124.392    -222.855
  H       36.395     125.498    -222.111
  H       37.663     126.567    -222.768
  P       39.721     126.001    -226.515
  C       38.156     127.965    -225.832
  O       38.542     127.039    -226.840
  O       39.444     124.802    -227.538
  O       41.106     126.536    -226.638
  H       39.875     124.987    -228.395
  H       37.364     128.583    -226.200
  H       38.994     128.577    -225.570
  H       37.820     127.432    -224.968

 6  7  8  9  10  11  12  13  14  15  26  29  33  34 0
 6-311+G(2d,p)
 ****
 36  38  39  40  41 0
 6-311+G(2d,p)
 ****
 1  2  3  4  5  16  17  18  19  20  21  22  23  24  25 0
 3-21G
 ****
 27  28  30  31  32  35  37  42  43  44  45  46  47 0
 3-21G
 ****
 48  49 0
 3-21G
 ****


