%nproc=1
%NoSave
%Mem=1900MB
#P OB98/GEN NMR

erre ene a

0 1
  C      525.486    -111.765    -505.883
  O      524.097    -111.697    -506.190
  P      523.673    -110.834    -507.480
  C      521.249    -110.635    -506.541
  O      522.411    -109.951    -507.020
  C      520.267    -109.634    -505.932
  O      520.714    -109.244    -504.620
  C      520.125    -108.343    -506.717
  O      519.302    -108.540    -507.852
  C      519.511    -107.419    -505.677
  O      518.088    -107.545    -505.635
  C      520.144    -107.940    -504.356
  N      521.136    -107.034    -503.812
  C      520.643    -105.811    -503.315
  O      519.429    -105.560    -503.376
  N      521.545    -104.891    -502.806
  C      522.802    -105.175    -502.795
  N      523.646    -104.236    -502.273
  C      523.375    -106.438    -503.325
  C      522.492    -107.307    -503.817
  O      523.032    -111.928    -508.460
  O      524.795    -110.078    -508.128
  H      517.805    -107.107    -504.813
  H      523.115    -111.648    -509.384
  H      524.439    -106.620    -503.299
  H      522.808    -108.252    -504.233
  H      519.365    -108.089    -503.590
  H      519.741    -106.366    -505.878
  H      521.106    -107.970    -507.024
  H      519.291    -110.146    -505.828
  H      523.234    -103.370    -501.935
  H      521.546    -111.361    -505.784
  H      524.644    -104.363    -502.208
  H      520.793    -111.181    -507.373
  P      519.702    -107.779    -509.203
  C      517.624    -108.870    -510.235
  O      518.332    -107.672    -510.025
  O      520.488    -108.911    -510.023
  O      520.487    -106.523    -509.070
  H      520.872    -108.531    -510.829
  H      516.640    -108.644    -510.666
  H      517.479    -109.401    -509.289
  H      518.167    -109.513    -510.942
  H      525.629    -112.365    -505.009
  H      525.860    -110.779    -505.704
  H      526.012    -112.202    -506.706

 3  4  5  6  7  8  9  10  11  12  13  21  23  27  28  29  30  32 0
 6-311+G(2d,p)
 ****
 34  35 0
 6-311+G(2d,p)
 ****
 1  2  14  15  16  17  18  19  20  22  24  25  26 0
 3-21G
 ****
 31  33  36  37  38  39  40  41  42  43  44  45  46 0
 3-21G
 ****


