%nproc=1
%NoSave
%Mem=1900MB
#P OB98/GEN NMR

erre ene a

0 1
  C     -220.777    -475.022     653.984
  O     -221.031    -474.869     652.592
  P     -222.369    -475.320     651.848
  C     -221.305    -476.461     649.729
  O     -222.076    -475.402     650.276
  C     -220.572    -476.012     648.454
  O     -221.535    -475.933     647.368
  C     -219.939    -474.618     648.597
  O     -218.637    -474.524     648.030
  C     -221.010    -473.703     648.039
  O     -220.520    -472.427     647.649
  C     -221.613    -474.558     646.922
  N     -224.858    -472.814     643.384
  C     -223.475    -472.896     643.340
  N     -222.874    -472.441     642.220
  N     -222.747    -473.367     644.320
  C     -223.470    -473.711     645.415
  C     -224.832    -473.656     645.581
  C     -225.633    -473.184     644.474
  O     -226.860    -473.108     644.447
  N     -225.200    -474.105     646.823
  C     -224.062    -474.401     647.416
  N     -222.979    -474.188     646.594
  O     -223.617    -474.621     652.264
  O     -222.525    -476.873     652.257
  H     -220.036    -472.052     648.405
  H     -223.487    -477.053     652.291
  H     -225.367    -472.466     642.593
  H     -223.964    -474.789     648.421
  H     -221.048    -474.472     645.994
  H     -221.747    -473.531     648.830
  H     -223.359    -471.957     641.485
  H     -219.775    -474.377     649.653
  H     -221.862    -472.300     642.288
  H     -219.828    -476.765     648.192
  H     -222.014    -477.257     649.488
  H     -220.609    -476.854     650.473
  P     -217.246    -474.246     648.762
  C     -216.992    -472.059     647.447
  O     -216.371    -473.272     647.837
  O     -216.449    -475.631     648.675
  O     -217.364    -473.802     650.185
  H     -216.271    -475.962     649.577
  H     -216.412    -471.622     646.629
  H     -216.992    -471.356     648.288
  H     -218.014    -472.236     647.112
  H     -219.806    -474.636     654.214
  H     -220.818    -476.060     654.242
  H     -221.516    -474.486     654.542

 3  4  5  6  7  8  9  10  11  12  23  26  30  31 0
 6-311+G(2d,p)
 ****
 33  35  36  37  38 0
 6-311+G(2d,p)
 ****
 1  2  13  14  15  16  17  18  19  20  21  22  24  25 0
 3-21G
 ****
 27  28  29  32  34  39  40  41  42  43  44  45  46  47  48  49 0
 3-21G
 ****


