%nproc=1
%NoSave
%Mem=1900MB
#P OB98/GEN NMR

erre ene a

0 1
  C       25.732      -2.186       5.753
  O       26.433      -3.423       5.843
  P       27.158      -4.157       4.628
  C       29.125      -2.613       3.813
  O       28.693      -3.711       4.605
  C       30.645      -2.420       3.918
  O       30.947      -1.772       5.191
  C       31.409      -3.748       3.895
  O       32.591      -3.712       3.101
  C       31.575      -4.069       5.370
  O       32.612      -5.002       5.634
  C       31.748      -2.681       5.980
  N       32.823      -4.057      10.776
  C       33.404      -4.473       9.596
  N       34.391      -5.388       9.696
  N       33.038      -4.044       8.417
  C       31.990      -3.193       8.452
  C       31.320      -2.718       9.556
  C       31.766      -3.161      10.860
  O       31.299      -2.807      11.939
  N       30.313      -1.859       9.198
  C       30.359      -1.831       7.882
  N       31.369      -2.620       7.381
  O       26.433      -4.134       3.325
  O       27.242      -5.695       5.106
  H       32.460      -5.783       5.070
  H       27.180      -6.238       4.295
  H       33.159      -4.403      11.658
  H       29.702      -1.250       7.246
  H       32.783      -2.338       5.936
  H       30.638      -4.526       5.717
  H       34.636      -5.850      10.557
  H       30.809      -4.534       3.422
  H       34.657      -5.850       8.825
  H       30.972      -1.753       3.113
  H       28.609      -1.732       4.212
  H       28.812      -2.737       2.775
  P       32.810      -4.247       1.613
  C       32.559      -2.094       0.242
  O       33.455      -3.071       0.740
  O       31.339      -4.382       1.000
  O       33.531      -5.551       1.519
  H       31.165      -5.315       0.765
  H       33.065      -1.518      -0.537
  H       32.268      -1.418       1.051
  H       31.669      -2.565      -0.184
  H       25.345      -1.925       6.716
  H       24.924      -2.284       5.058
  H       26.401      -1.421       5.418

 3  4  5  6  7  8  9  10  11  12  23  26  30  31 0
 6-311+G(2d,p)
 ****
 33  35  36  37  38 0
 6-311+G(2d,p)
 ****
 1  2  13  14  15  16  17  18  19  20  21  22  24  25 0
 3-21G
 ****
 27  28  29  32  34  39  40  41  42  43  44  45  46  47  48  49 0
 3-21G
 ****


