%nproc=1
%NoSave
%Mem=1900MB
#P OB98/GEN NMR

erre ene a

0 1
  C     -542.779    -624.478    -694.144
  O     -541.929    -625.458    -694.697
  H     -542.553    -623.514    -694.607
  H     -542.616    -624.402    -693.064
  H     -543.824    -624.732    -694.344
  P     -542.057    -626.951    -694.106
  C     -541.824    -628.238    -696.349
  O     -541.237    -627.910    -695.099
  C     -540.727    -628.473    -697.387
  O     -539.978    -627.262    -697.603
  C     -539.698    -629.518    -696.968
  O     -540.174    -630.848    -697.139
  C     -538.551    -629.175    -697.898
  O     -538.714    -629.800    -699.193
  C     -538.651    -627.645    -698.006
  N     -537.622    -626.971    -697.214
  C     -536.444    -626.650    -697.893
  O     -536.266    -626.912    -699.092
  N     -535.468    -626.055    -697.155
  C     -535.524    -625.786    -695.814
  O     -534.580    -625.315    -695.184
  C     -536.794    -626.136    -695.152
  C     -537.762    -626.708    -695.871
  O     -543.589    -627.322    -694.393
  O     -541.702    -627.091    -692.661
  H     -544.101    -627.245    -693.572
  H     -539.582    -629.494    -699.533
  H     -534.610    -625.833    -697.624
  H     -536.872    -625.926    -694.090
  H     -538.692    -626.993    -695.392
  H     -538.538    -627.320    -699.052
  H     -537.592    -629.524    -697.507
  H     -539.374    -629.346    -695.932
  H     -541.201    -628.758    -698.337
  H     -542.459    -627.405    -696.686
  H     -542.456    -629.129    -696.234
  P     -539.663    -631.973    -696.122
  C     -541.295    -633.776    -697.149
  O     -539.968    -633.391    -696.831
  O     -540.759    -631.883    -694.968
  O     -538.246    -631.798    -695.673
  H     -541.645    -631.676    -695.302
  H     -541.285    -634.742    -697.610
  H     -541.721    -633.063    -697.823
  H     -541.880    -633.814    -696.254

 6  7  8  9  10  11  12  13  14  15  16  27  31  32  33  34  35 0
 6-311+G(2d,p)
 ****
 36  37 0
 6-311+G(2d,p)
 ****
 1  2  3  4  5  17  18  19  20  21  22  23  24  25 0
 3-21G
 ****
 26  28  29  30  38  39  40  41  42  43  44  45 0
 3-21G
 ****


