%nproc=1
%NoSave
%Mem=1900MB
#P OB98/GEN NMR

erre ene a

0 1
  C       87.756      39.485       4.262
  O       88.108      40.824       4.542
  H       86.807      39.481       3.720
  H       87.629      38.925       5.192
  H       88.516      39.005       3.640
  P       89.530      41.125       5.217
  C       88.508      41.444       7.560
  O       89.413      40.697       6.757
  C       88.648      41.031       9.022
  O       87.714      41.768       9.843
  C       88.353      39.557       9.279
  O       89.429      38.747       8.853
  C       88.111      39.580      10.780
  O       89.352      39.612      11.502
  C       87.349      40.915      10.952
  N       85.898      40.735      11.023
  C       85.396      40.277      12.237
  O       86.105      40.026      13.208
  N       84.042      40.072      12.282
  C       83.182      40.191      11.229
  O       82.023      39.788      11.255
  C       83.756      40.749       9.996
  C       85.070      40.977       9.944
  O       90.084      42.489       4.980
  O       90.484      39.991       4.604
  H       91.022      40.377       3.887
  H       89.120      39.620      12.451
  H       83.674      39.694      13.143
  H       83.094      40.920       9.157
  H       85.520      41.361       9.036
  H       87.674      41.427      11.867
  H       87.563      38.702      11.126
  H       87.424      39.267       8.775
  H       89.663      41.287       9.354
  H       87.487      41.236       7.219
  H       88.714      42.511       7.435
  P       89.214      37.200       8.505
  C       90.160      36.437      10.762
  O       89.043      36.400       9.884
  O       90.221      36.615       7.571
  O       87.744      37.141       7.870
  H       87.789      36.691       7.004
  H       89.938      35.875      11.645
  H       90.371      37.452      11.029
  H       91.012      36.012      10.273

 6  7  8  9  10  11  12  13  14  15  16  27  31  32  33  34  35 0
 6-311+G(2d,p)
 ****
 36  37 0
 6-311+G(2d,p)
 ****
 1  2  3  4  5  17  18  19  20  21  22  23  24  25 0
 3-21G
 ****
 26  28  29  30  38  39  40  41  42  43  44  45 0
 3-21G
 ****


