%nproc=1
%NoSave
%Mem=1900MB
#P OB98/GEN NMR

erre ene a

0 1
  C     -194.868     287.833    -135.849
  O     -194.658     287.666    -137.253
  P     -194.061     286.283    -137.797
  C     -195.495     285.194    -139.642
  O     -194.459     286.117    -139.342
  C     -196.872     285.775    -139.282
  O     -197.045     287.065    -139.926
  C     -198.034     284.870    -139.717
  O     -198.965     284.610    -138.666
  C     -198.593     285.575    -140.941
  O     -199.948     285.243    -141.201
  C     -198.290     287.050    -140.649
  N     -198.227     287.849    -141.877
  C     -199.091     288.932    -141.960
  O     -199.933     289.189    -141.099
  N     -199.003     289.685    -143.099
  C     -198.207     289.417    -144.174
  O     -198.197     290.097    -145.192
  C     -197.358     288.221    -144.056
  C     -197.408     287.504    -142.931
  O     -194.316     285.085    -136.946
  O     -192.484     286.589    -137.883
  H     -199.989     284.302    -141.479
  H     -192.008     285.782    -137.605
  H     -199.612     290.486    -143.167
  H     -196.732     287.964    -144.896
  H     -196.805     286.612    -142.822
  H     -199.061     287.491    -140.013
  H     -198.011     285.263    -141.814
  H     -197.678     283.875    -140.005
  H     -196.888     285.923    -138.198
  H     -195.339     284.277    -139.075
  H     -195.437     284.914    -140.700
  P     -198.612     283.828    -137.316
  C     -199.989     285.254    -135.645
  O     -199.834     284.011    -136.298
  O     -197.266     284.104    -136.738
  O     -198.721     282.290    -137.752
  H     -198.001     281.786    -137.330
  H     -200.598     285.104    -134.750
  H     -200.505     285.951    -136.309
  H     -199.024     285.672    -135.351
  H     -195.268     288.807    -135.662
  H     -193.936     287.725    -135.334
  H     -195.556     287.092    -135.501

 3  4  5  6  7  8  9  10  11  12  13  23  28  29  30  31  32 0
 6-311+G(2d,p)
 ****
 33  34 0
 6-311+G(2d,p)
 ****
 1  2  14  15  16  17  18  19  20  21  22  24  25  26  27 0
 3-21G
 ****
 35  36  37  38  39  40  41  42  43  44  45 0
 3-21G
 ****


