%nproc=1
%NoSave
%Mem=1900MB
#P OB98/GEN NMR

erre ene a

0 1
  C     -262.177    -350.990    -485.477
  O     -261.873    -352.282    -484.992
  H     -262.985    -351.071    -486.211
  H     -261.302    -350.562    -485.970
  H     -262.506    -350.335    -484.660
  P     -260.852    -352.365    -483.757
  C     -259.050    -352.906    -485.553
  O     -259.378    -352.186    -484.372
  C     -258.181    -352.049    -486.470
  O     -258.926    -350.894    -486.928
  C     -256.919    -351.506    -485.808
  O     -255.868    -352.468    -485.813
  C     -256.597    -350.340    -486.735
  O     -256.002    -350.836    -487.953
  C     -257.998    -349.775    -487.023
  N     -257.436    -344.904    -485.723
  C     -256.821    -345.633    -486.721
  N     -255.917    -344.975    -487.485
  N     -257.057    -346.900    -486.958
  C     -257.978    -347.434    -486.112
  C     -258.656    -346.816    -485.088
  C     -258.385    -345.415    -484.843
  O     -258.917    -344.720    -483.984
  N     -259.512    -347.681    -484.456
  C     -259.338    -348.823    -485.092
  N     -258.413    -348.730    -486.099
  O     -260.894    -353.917    -483.347
  O     -261.180    -351.492    -482.596
  H     -255.983    -350.088    -488.582
  H     -260.806    -353.988    -482.377
  H     -257.203    -343.941    -485.581
  H     -259.858    -349.746    -484.858
  H     -258.082    -349.362    -488.030
  H     -255.893    -349.637    -486.299
  H     -255.648    -344.018    -487.323
  H     -257.123    -351.127    -484.801
  H     -255.482    -345.479    -488.246
  H     -257.930    -352.648    -487.357
  H     -259.976    -353.178    -486.074
  H     -258.516    -353.825    -485.272
  P     -255.477    -353.145    -484.409
  C     -253.076    -352.271    -484.868
  O     -254.136    -352.406    -483.925
  O     -254.963    -354.602    -484.841
  O     -256.589    -353.214    -483.413
  H     -255.045    -355.222    -484.094
  H     -252.253    -351.763    -484.410
  H     -253.418    -351.708    -485.711
  H     -252.761    -353.241    -485.191

 6  7  8  9  10  11  12  13  14  15  26  29  33  34 0
 6-311+G(2d,p)
 ****
 36  38  39  40  41 0
 6-311+G(2d,p)
 ****
 1  2  3  4  5  16  17  18  19  20  21  22  23  24  25 0
 3-21G
 ****
 27  28  30  31  32  35  37  42  43  44  45  46  47 0
 3-21G
 ****
 48  49 0
 3-21G
 ****


