%nproc=1
%NoSave
%Mem=1900MB
#P OB98/GEN NMR

erre ene a

0 1
  C       66.277      87.009     310.499
  O       65.454      87.183     309.365
  H       65.966      86.099     311.020
  H       66.155      87.860     311.175
  H       67.327      86.910     310.219
  P       65.912      88.220     308.236
  C       65.675      90.760     307.830
  O       65.322      89.657     308.650
  C       65.121      92.069     308.393
  O       63.683      92.105     308.223
  C       65.382      92.161     309.909
  O       65.501      93.505     310.354
  C       64.130      91.551     310.503
  O       63.904      91.940     311.857
  C       63.064      92.037     309.522
  N       58.032      91.661     310.229
  C       58.877      92.712     310.533
  N       58.319      93.798     311.119
  N       60.165      92.693     310.295
  C       60.602      91.518     309.769
  C       59.858      90.400     309.456
  C       58.429      90.452     309.685
  O       57.630      89.552     309.450
  N       60.657      89.393     308.961
  C       61.878      89.897     308.987
  N       61.892      91.191     309.462
  O       65.004      87.830     306.971
  O       67.370      88.210     307.891
  H       63.948      92.911     311.894
  H       65.440      88.106     306.143
  H       57.043      91.740     310.420
  H       62.769      89.377     308.675
  H       62.726      93.048     309.795
  H       64.242      90.453     310.495
  H       57.376      93.785     311.474
  H       66.278      91.608     310.200
  H       58.955      94.435     311.606
  H       65.526      92.928     307.850
  H       65.258      90.575     306.837
  H       66.764      90.817     307.726
  P       66.942      93.998     310.877
  C       68.005      94.524     313.220
  O       66.877      94.090     312.472
  O       67.026      95.520     310.398
  O       68.076      93.175     310.348
  H       67.615      95.604     309.639
  H       67.765      94.518     314.263
  H       68.271      95.516     312.921
  H       68.828      93.865     313.039

 6  7  8  9  10  11  12  13  14  15  26  29  33  34 0
 6-311+G(2d,p)
 ****
 36  38  39  40  41 0
 6-311+G(2d,p)
 ****
 1  2  3  4  5  16  17  18  19  20  21  22  23  24  25 0
 3-21G
 ****
 27  28  30  31  32  35  37  42  43  44  45  46  47 0
 3-21G
 ****
 48  49 0
 3-21G
 ****


