%nproc=1
%NoSave
%Mem=1900MB
#P OB98/GEN NMR

erre ene a

0 1
  C      -24.657     -44.994     -99.391
  O      -25.823     -45.169    -100.175
  P      -27.227     -44.745     -99.528
  C      -28.151     -43.135    -101.360
  O      -27.575     -43.277    -100.068
  C      -28.420     -41.656    -101.645
  O      -27.180     -40.918    -101.687
  C      -29.091     -41.406    -102.987
  O      -30.483     -41.675    -102.930
  C      -28.767     -39.938    -103.225
  O      -29.697     -39.086    -102.538
  C      -27.359     -39.819    -102.607
  N      -26.305     -39.779    -103.615
  C      -26.281     -38.647    -104.426
  O      -27.106     -37.737    -104.328
  N      -25.304     -38.615    -105.381
  C      -24.399     -39.605    -105.638
  O      -23.580     -39.542    -106.546
  C      -24.490     -40.790    -104.768
  C      -25.427     -40.825    -103.818
  O      -26.882     -44.511     -97.982
  O      -28.319     -45.744     -99.708
  H      -30.531     -39.119    -103.047
  H      -27.634     -44.794     -97.429
  H      -25.253     -37.793    -105.961
  H      -23.789     -41.595    -104.944
  H      -25.519     -41.695    -103.178
  H      -27.289     -38.907    -102.002
  H      -28.813     -39.673    -104.287
  H      -28.608     -42.010    -103.766
  H      -29.031     -41.252    -100.826
  H      -29.088     -43.695    -101.402
  H      -27.466     -43.551    -102.104
  P      -31.070     -42.705    -104.013
  C      -31.957     -44.600    -102.448
  O      -30.949     -44.148    -103.324
  O      -29.911     -42.669    -105.118
  O      -32.421     -42.319    -104.513
  H      -29.034     -42.526    -104.723
  H      -32.946     -44.260    -102.766
  H      -31.753     -44.231    -101.440
  H      -31.947     -45.692    -102.434
  H      -23.802     -45.317     -99.947
  H      -24.739     -45.573     -98.495
  H      -24.549     -43.960     -99.139

 3  4  5  6  7  8  9  10  11  12  13  23  28  29  30  31  32 0
 6-311+G(2d,p)
 ****
 33  34 0
 6-311+G(2d,p)
 ****
 1  2  14  15  16  17  18  19  20  21  22  24  25  26 0
 3-21G
 ****
 27  35  36  37  38  39  40  41  42  43  44  45 0
 3-21G
 ****


