%nproc=1
%NoSave
%Mem=1900MB
#P OB98/GEN NMR

erre ene a

0 1
  C      -95.575      79.444     100.351
  O      -95.202      80.276      99.276
  H      -96.661      79.310     100.326
  H      -95.303      79.898     101.306
  H      -95.101      78.461     100.253
  P      -93.683      80.793      99.179
  C      -94.036      82.636     100.934
  O      -93.366      81.416     100.636
  C      -93.094      83.650     101.582
  O      -93.779      84.923     101.741
  C      -92.575      83.224     102.964
  O      -91.163      83.446     103.035
  C      -93.300      84.166     103.923
  O      -92.598      84.328     105.151
  C      -93.442      85.421     103.051
  N      -94.460      86.349     103.550
  C      -93.987      87.470     104.243
  O      -92.776      87.615     104.443
  N      -94.894      88.375     104.733
  C      -96.168      88.156     104.586
  N      -97.017      89.080     105.103
  C      -96.705      86.963     103.903
  C      -95.805      86.114     103.406
  O      -93.404      81.709      98.031
  O      -92.806      79.458      99.163
  H      -92.422      83.439     105.527
  H      -91.908      79.659      98.793
  H      -97.774      86.816     103.813
  H      -96.112      85.213     102.875
  H      -92.491      85.960     102.985
  H      -94.298      83.757     104.152
  H      -92.783      82.188     103.198
  H      -92.258      83.839     100.885
  H      -96.609      89.888     105.567
  H      -94.878      82.421     101.602
  H      -98.024      89.016     105.054
  H      -94.421      83.055      99.991
  P      -90.247      82.125     103.075
  C      -90.121      81.844     105.652
  O      -90.604      81.317     104.425
  O      -88.780      82.704     103.351
  O      -90.298      81.317     101.817
  H      -88.269      82.735     102.517
  H      -90.430      81.212     106.458
  H      -90.517      82.827     105.798
  H      -89.052      81.890     105.624

 6  7  8  9  10  11  12  13  14  15  16  26  30  31  32  33  35 0
 6-311+G(2d,p)
 ****
 37  38 0
 6-311+G(2d,p)
 ****
 1  2  3  4  5  17  18  19  20  21  22  23  24  25 0
 3-21G
 ****
 27  28  29  34  36  39  40  41  42  43  44  45  46 0
 3-21G
 ****


