%nproc=1
%NoSave
%Mem=1900MB
#P OB98/GEN NMR

erre ene a

0 1
  C      316.229    -196.305     -13.480
  O      316.686    -196.063     -12.168
  P      315.876    -196.629     -10.906
  C      316.813    -199.014     -11.136
  O      315.652    -198.195     -11.182
  C      316.996    -199.588      -9.732
  O      317.130    -198.528      -8.749
  C      315.814    -200.407      -9.239
  O      315.537    -201.618      -9.907
  C      316.110    -200.489      -7.752
  O      317.065    -201.509      -7.465
  C      316.715    -199.087      -7.478
  N      315.773    -198.214      -6.782
  C      316.244    -197.611      -5.622
  O      317.378    -197.780      -5.179
  N      315.349    -196.817      -4.956
  C      314.045    -196.610      -5.304
  O      313.286    -195.922      -4.634
  C      313.601    -197.286      -6.530
  C      314.468    -198.048      -7.206
  O      314.634    -195.877     -10.557
  O      316.977    -196.646      -9.744
  H      316.640    -202.370      -7.644
  H      317.753    -197.203      -9.924
  H      315.666    -196.382      -4.105
  H      312.574    -197.135      -6.841
  H      314.162    -198.558      -8.112
  H      317.620    -199.175      -6.862
  H      315.210    -200.718      -7.170
  H      314.907    -199.798      -9.350
  H      317.926    -200.162      -9.712
  H      317.689    -198.403     -11.386
  H      316.733    -199.808     -11.882
  P      314.174    -202.437      -9.729
  C      313.088    -201.135     -11.691
  O      312.978    -201.567     -10.352
  O      313.939    -203.068      -8.394
  O      314.346    -203.594     -10.828
  H      313.885    -204.395     -10.520
  H      312.214    -200.524     -11.932
  H      313.109    -201.998     -12.368
  H      313.985    -200.531     -11.828
  H      316.898    -195.850     -14.180
  H      315.251    -195.888     -13.599
  H      316.191    -197.360     -13.656

 3  4  5  6  7  8  9  10  11  12  13  23  28  29  30  31  32 0
 6-311+G(2d,p)
 ****
 33  34 0
 6-311+G(2d,p)
 ****
 1  2  14  15  16  17  18  19  20  21  22  24  25  26  27 0
 3-21G
 ****
 35  36  37  38  39  40  41  42  43  44  45 0
 3-21G
 ****


