%nproc=1
%NoSave
%Mem=1900MB
#P OB98/GEN NMR

erre ene a

0 1
  C     -166.455    -131.376      50.120
  O     -165.597    -130.389      49.573
  P     -164.358    -129.811      50.415
  C     -164.076    -128.105      48.495
  O     -163.441    -129.057      49.338
  C     -163.032    -127.399      47.634
  O     -162.250    -126.508      48.453
  C     -162.030    -128.331      46.963
  O     -162.610    -128.984      45.845
  C     -160.900    -127.359      46.645
  O     -161.208    -126.607      45.462
  C     -160.925    -126.430      47.877
  N     -159.902    -126.766      48.861
  C     -158.577    -126.736      48.417
  O     -158.303    -126.429      47.258
  N     -157.577    -127.020      49.314
  C     -157.873    -127.332      50.537
  N     -156.839    -127.537      51.398
  C     -159.259    -127.431      51.030
  C     -160.211    -127.133      50.151
  O     -163.642    -130.821      51.246
  O     -164.972    -128.601      51.255
  H     -161.129    -127.223      44.708
  H     -165.341    -128.875      52.130
  H     -159.457    -127.707      52.057
  H     -161.254    -127.162      50.441
  H     -160.789    -125.388      47.567
  H     -159.935    -127.850      46.489
  H     -161.678    -129.087      47.675
  H     -163.558    -126.798      46.880
  H     -155.915    -127.288      51.064
  H     -164.581    -127.365      49.125
  H     -156.972    -127.497      52.402
  H     -164.822    -128.611      47.876
  P     -163.017    -130.525      46.015
  C     -161.345    -131.225      44.161
  O     -162.688    -131.224      44.606
  O     -164.614    -130.479      46.076
  O     -162.424    -131.191      47.212
  H     -164.921    -130.559      46.998
  H     -161.257    -131.929      43.329
  H     -160.670    -131.540      44.961
  H     -161.069    -130.228      43.807
  H     -167.212    -131.626      49.406
  H     -166.914    -130.997      51.009
  H     -165.886    -132.251      50.358

 3  4  5  6  7  8  9  10  11  12  13  23  27  28  29  30  32 0
 6-311+G(2d,p)
 ****
 34  35 0
 6-311+G(2d,p)
 ****
 1  2  14  15  16  17  18  19  20  21  22  24  25  26 0
 3-21G
 ****
 31  33  36  37  38  39  40  41  42  43  44  45  46 0
 3-21G
 ****


