%nproc=1
%NoSave
%Mem=1900MB
#P OB98/GEN NMR

erre ene a

0 1
  C      108.452    -256.495     111.668
  O      109.277    -255.571     110.938
  P      110.850    -255.870     110.796
  C      111.449    -258.236     109.851
  O      111.070    -256.894     109.581
  C      111.686    -258.992     108.541
  O      110.701    -258.613     107.553
  C      113.032    -258.711     107.889
  O      114.089    -259.399     108.535
  C      112.780    -259.190     106.463
  O      112.948    -260.614     106.361
  C      111.304    -258.800     106.253
  N      111.147    -257.613     105.417
  C      110.975    -257.834     104.054
  O      111.008    -258.953     103.544
  N      110.796    -256.716     103.286
  C      110.842    -255.423     103.728
  O      110.694    -254.460     102.985
  C      111.109    -255.251     105.163
  C      111.252    -256.335     105.928
  O      111.127    -256.805     112.070
  O      111.743    -254.673     110.814
  H      112.258    -261.019     106.924
  H      112.055    -256.701     112.355
  H      110.640    -256.854     102.301
  H      111.175    -254.241     105.550
  H      111.449    -256.224     106.990
  H      110.757    -259.629     105.786
  H      113.466    -258.734     105.742
  H      113.222    -257.633     107.875
  H      111.572    -260.066     108.742
  H      110.651    -258.731     110.411
  H      112.358    -258.233     110.464
  P      114.798    -258.641     109.762
  C      114.054    -258.281     112.242
  O      113.936    -259.035     111.054
  O      114.408    -257.119     109.446
  O      116.267    -258.903     109.842
  H      113.531    -257.046     109.029
  H      114.250    -257.227     112.033
  H      114.867    -258.690     112.849
  H      113.118    -258.362     112.804
  H      107.440    -256.148     111.666
  H      108.802    -256.566     112.677
  H      108.500    -257.458     111.205

 3  4  5  6  7  8  9  10  11  12  13  23  28  29  30  31  32 0
 6-311+G(2d,p)
 ****
 33  34 0
 6-311+G(2d,p)
 ****
 1  2  14  15  16  17  18  19  20  21  22  24  25  26 0
 3-21G
 ****
 27  35  36  37  38  39  40  41  42  43  44  45 0
 3-21G
 ****


