%nproc=1
%NoSave
%Mem=1900MB
#P OB98/GEN NMR

erre ene a

0 1
  C      -86.841     -91.289     725.107
  O      -87.730     -90.230     724.840
  P      -89.204     -90.231     725.491
  C      -89.158     -87.683     725.797
  O      -89.850     -88.782     725.236
  C      -89.783     -86.366     725.326
  O      -91.227     -86.446     725.379
  C      -89.408     -85.159     726.181
  O      -88.093     -84.721     725.893
  C      -90.511     -84.173     725.797
  O      -90.180     -83.514     724.557
  C      -91.718     -85.102     725.607
  N      -95.407     -82.512     727.990
  C      -94.588     -82.182     726.966
  N      -93.606     -82.912     726.411
  C      -93.477     -84.094     727.045
  C      -94.207     -84.549     728.137
  C      -95.235     -83.709     728.599
  N      -96.098     -84.057     729.616
  N      -93.754     -85.791     728.533
  C      -92.766     -86.077     727.703
  N      -92.605     -85.111     726.751
  O      -89.275     -90.723     726.898
  O      -90.046     -91.184     724.509
  H      -89.375     -82.987     724.715
  H      -90.385     -91.945     725.013
  H      -94.770     -81.204     726.516
  H      -92.161     -86.973     727.735
  H      -92.311     -84.825     724.723
  H      -90.657     -83.398     726.547
  H      -89.511     -85.413     727.247
  H      -89.481     -86.209     724.276
  H      -88.119     -87.728     725.482
  H      -96.891     -83.439     729.764
  H      -96.183     -85.034     729.858
  H      -89.205     -87.747     726.897
  P      -87.291     -83.843     726.970
  C      -85.223     -84.257     725.498
  O      -85.971     -83.304     726.240
  O      -87.070     -84.492     728.303
  O      -88.197     -82.521     727.104
  H      -88.116     -82.178     728.019
  H      -84.634     -84.871     726.193
  H      -84.548     -83.731     724.833
  H      -85.899     -84.903     724.913
  H      -85.918     -91.118     724.593
  H      -87.271     -92.209     724.771
  H      -86.658     -91.344     726.160

 3  4  5  6  7  8  9  10  11  12  22  25  29  30  31  32 0
 6-311+G(2d,p)
 ****
 33  36  37 0
 6-311+G(2d,p)
 ****
 1  2  13  14  15  16  17  18  19  20  21  23  24  26 0
 3-21G
 ****
 27  28  34  35  38  39  40  41  42  43  44  45  46  47  48 0
 3-21G
 ****


