%nproc=1
%NoSave
%Mem=1900MB
#P OB98/GEN NMR

erre ene a

0 1
  C      236.273    -582.854    -362.600
  O      236.047    -581.492    -362.901
  H      236.105    -583.444    -363.504
  H      235.579    -583.187    -361.826
  H      237.305    -583.006    -362.266
  P      236.260    -580.450    -361.698
  C      236.524    -577.857    -361.725
  O      235.912    -579.002    -362.297
  C      236.460    -576.675    -362.702
  O      237.392    -576.922    -363.799
  C      235.074    -576.466    -363.338
  O      234.935    -575.067    -363.641
  C      235.205    -577.261    -364.628
  O      234.161    -576.942    -365.522
  C      236.626    -576.868    -365.026
  N      237.722    -577.397    -369.989
  C      237.191    -576.372    -369.292
  N      236.941    -576.298    -367.966
  C      237.317    -577.433    -367.347
  C      237.880    -578.555    -367.926
  C      238.080    -578.516    -369.319
  N      238.617    -579.565    -370.032
  N      238.137    -579.525    -366.968
  C      237.728    -578.990    -365.836
  N      237.221    -577.732    -366.016
  O      237.854    -580.418    -361.520
  O      235.562    -580.789    -360.423
  H      233.309    -576.850    -365.044
  H      238.119    -581.034    -360.814
  H      236.926    -575.489    -369.872
  H      237.770    -579.469    -364.861
  H      236.671    -575.839    -365.400
  H      235.136    -578.337    -364.432
  H      234.249    -576.785    -362.693
  H      236.804    -575.765    -362.191
  H      237.572    -578.097    -361.501
  H      236.010    -577.590    -360.795
  H      238.716    -579.459    -371.029
  H      238.877    -580.411    -369.548
  P      234.149    -574.114    -362.608
  C      234.314    -571.529    -362.225
  O      234.218    -572.608    -363.151
  O      235.158    -574.068    -361.362
  O      232.799    -574.596    -362.182
  H      234.656    -573.914    -360.545
  H      234.349    -570.603    -362.759
  H      235.204    -571.638    -361.641
  H      233.461    -571.536    -361.579

 6  7  8  9  10  11  12  13  14  15  25  28  32  33  34  35 0
 6-311+G(2d,p)
 ****
 36  37  40 0
 6-311+G(2d,p)
 ****
 1  2  3  4  5  16  17  18  19  20  21  22  23  24 0
 3-21G
 ****
 26  27  29  30  31  38  39 41  42  43  44  45  46  47  48 0
 3-21G
 ****


