%nproc=1
%NoSave
%Mem=1900MB
#P OB98/GEN NMR

erre ene a

0 1
  C       99.680    -238.526    -138.425
  O      100.463    -239.481    -137.740
  H       99.619    -237.623    -137.813
  H       98.668    -238.904    -138.593
  H      100.146    -238.268    -139.380
  P      100.609    -240.947    -138.381
  C       98.860    -242.705    -139.133
  O       99.107    -241.350    -138.790
  C       97.512    -242.833    -139.837
  O       96.431    -242.447    -138.963
  C       97.346    -241.952    -141.072
  O       98.072    -242.418    -142.198
  C       95.843    -242.050    -141.266
  O       95.513    -243.326    -141.845
  C       95.344    -241.962    -139.803
  N       94.961    -240.608    -139.411
  C       93.777    -240.104    -139.965
  O       93.110    -240.788    -140.739
  N       93.394    -238.822    -139.656
  C       94.138    -238.097    -138.880
  N       93.738    -236.816    -138.645
  C       95.382    -238.591    -138.260
  C       95.735    -239.837    -138.569
  O      101.340    -241.958    -137.558
  O      101.275    -240.690    -139.814
  H       95.809    -244.009    -141.217
  H      101.398    -241.569    -140.246
  H       95.970    -237.943    -137.628
  H       96.646    -240.266    -138.167
  H       94.491    -242.631    -139.641
  H       95.442    -241.279    -141.930
  H       97.603    -240.913    -140.846
  H       97.365    -243.896    -140.077
  H       92.902    -236.498    -139.120
  H       98.881    -243.298    -138.213
  H       94.383    -236.118    -138.292
  H       99.639    -243.071    -139.809
  P       98.306    -241.397    -143.415
  C       97.126    -241.110    -145.721
  O       97.016    -241.508    -144.364
  O       99.459    -242.110    -144.261
  O       98.660    -239.996    -143.028
  H      100.341    -241.778    -144.003
  H       96.184    -241.246    -146.210
  H       97.870    -241.705    -146.208
  H       97.407    -240.079    -145.769

 6  7  8  9  10  11  12  13  14  15  16  26  30  31  32  33  35 0
 6-311+G(2d,p)
 ****
 37  38 0
 6-311+G(2d,p)
 ****
 1  2  3  4  5  17  18  19  20  21  22  23  24  25 0
 3-21G
 ****
 27  28  29  34  36  39  40  41  42  43  44  45  46 0
 3-21G
 ****


