%nproc=1
%NoSave
%Mem=1900MB
#P OB98/GEN NMR

erre ene a

0 1
  C      507.250    -664.006     506.275
  O      506.755    -664.248     504.970
  P      507.796    -664.185     503.746
  C      510.044    -662.896     503.476
  O      508.722    -662.902     504.010
  C      510.930    -661.948     504.280
  O      510.906    -662.287     505.684
  C      512.402    -661.985     503.886
  O      512.669    -661.203     502.727
  C      513.044    -661.353     505.106
  O      512.920    -659.916     505.055
  C      512.189    -661.926     506.250
  N      516.264    -663.637     508.708
  C      515.910    -662.345     508.377
  N      516.808    -661.373     508.697
  N      514.797    -662.021     507.791
  C      513.995    -663.092     507.523
  C      514.241    -664.418     507.810
  C      515.495    -664.759     508.447
  O      515.883    -665.891     508.721
  N      513.204    -665.214     507.394
  C      512.333    -664.373     506.863
  N      512.791    -663.081     506.881
  O      506.883    -663.743     502.507
  O      508.520    -665.465     503.488
  H      513.501    -659.612     504.334
  H      507.347    -663.938     501.667
  H      517.149    -663.836     509.161
  H      511.379    -664.656     506.444
  H      512.002    -661.168     507.029
  H      514.114    -661.584     505.186
  H      517.713    -661.562     509.094
  H      512.758    -663.017     503.771
  H      516.601    -660.416     508.405
  H      510.522    -660.927     504.175
  H      510.014    -662.590     502.436
  H      510.442    -663.917     503.514
  P      513.901    -661.663     501.822
  C      516.440    -661.676     502.420
  O      515.196    -660.988     502.481
  O      513.684    -660.839     500.459
  O      513.981    -663.141     501.579
  H      514.093    -661.305     499.711
  H      517.238    -660.978     502.662
  H      516.620    -662.076     501.415
  H      516.440    -662.497     503.143
  H      506.449    -664.081     506.980
  H      507.673    -663.024     506.320
  H      508.002    -664.730     506.511

 3  4  5  6  7  8  9  10  11  12  23  26  30  31 0
 6-311+G(2d,p)
 ****
 33  35  36  37  38 0
 6-311+G(2d,p)
 ****
 1  2  13  14  15  16  17  18  19  20  21  22  24  25 0
 3-21G
 ****
 27  28  29  32  34  39  40  41  42  43  44  45  46  47  48  49 0
 3-21G
 ****


