%nproc=1
%NoSave
%Mem=1900MB
#P OB98/GEN NMR

erre ene a

0 1
  C      -94.654      49.878     145.704
  O      -95.420      51.001     146.149
  P      -95.360      51.429     147.692
  C      -97.834      50.702     147.855
  O      -96.557      50.702     148.480
  C      -98.958      50.809     148.908
  O      -99.016      49.588     149.692
  C      -98.759      51.985     149.878
  O      -99.918      52.816     149.996
  C      -98.286      51.315     151.156
  O      -98.543      52.095     152.317
  C      -98.966      49.938     151.088
  N      -98.254      48.938     151.891
  C      -98.203      49.162     153.262
  O      -98.644      50.182     153.797
  N      -97.556      48.200     154.002
  C      -96.916      47.108     153.505
  O      -96.313      46.298     154.204
  C      -96.952      46.955     152.038
  C      -97.613      47.862     151.314
  O      -95.236      52.895     147.954
  O      -94.069      50.640     148.232
  H      -98.064      51.692     153.075
  H      -93.602      51.231     148.861
  H      -97.520      48.343     154.998
  H      -96.432      46.108     151.607
  H      -97.648      47.781     150.232
  H      -99.995      49.991     151.470
  H      -97.200      51.174     151.096
  H      -97.980      52.673     149.525
  H      -99.902      50.918     148.362
  H      -97.967      49.779     147.294
  H      -97.887      51.521     147.132
  P      -99.913      54.407     149.859
  C     -100.436      54.950     152.343
  O      -99.506      55.036     151.277
  O     -101.123      55.014     149.230
  O      -98.619      54.686     148.949
  H      -98.825      55.396     148.311
  H     -100.185      55.721     153.086
  H     -100.368      53.968     152.813
  H     -101.463      55.122     151.995
  H      -94.809      49.733     144.655
  H      -94.964      49.002     146.235
  H      -93.616      50.059     145.889

 3  4  5  6  7  8  9  10  11  12  13  23  28  29  30  31  32 0
 6-311+G(2d,p)
 ****
 33  34 0
 6-311+G(2d,p)
 ****
 1  2  14  15  16  17  18  19  20  21  22  24  25  26  27 0
 3-21G
 ****
 35  36  37  38  39  40  41  42  43  44  45 0
 3-21G
 ****


