%nproc=1
%NoSave
%Mem=1900MB
#P OB98/GEN NMR

erre ene a

0 1
  C     -404.302     211.594     337.053
  O     -405.700     211.436     337.154
  H     -404.069     211.970     336.051
  H     -403.793     210.639     337.192
  H     -403.948     212.322     337.790
  P     -406.310     210.720     338.458
  C     -406.506     208.409     337.348
  O     -405.837     209.179     338.341
  C     -406.920     207.040     337.882
  O     -407.622     206.300     336.843
  C     -405.739     206.174     338.355
  O     -406.051     205.594     339.627
  C     -405.650     205.080     337.291
  O     -405.026     203.899     337.783
  C     -407.126     204.946     336.886
  N     -407.302     204.274     335.595
  C     -407.704     202.934     335.648
  O     -407.851     202.370     336.736
  N     -407.885     202.251     334.470
  C     -407.637     202.841     333.338
  N     -407.824     202.112     332.209
  C     -407.167     204.237     333.243
  C     -407.029     204.892     334.395
  O     -407.783     210.910     338.647
  O     -405.430     211.273     339.671
  H     -404.968     203.250     337.050
  H     -405.922     211.142     340.522
  H     -406.963     204.684     332.279
  H     -406.699     205.930     334.422
  H     -407.690     204.390     337.639
  H     -405.060     205.449     336.436
  H     -404.811     206.720     338.433
  H     -407.650     207.193     338.695
  H     -408.149     201.154     332.314
  H     -405.839     208.294     336.484
  H     -407.662     202.460     331.275
  H     -407.408     208.961     337.034
  P     -405.546     206.417     340.912
  C     -403.779     204.704     341.741
  O     -404.015     205.995     341.200
  O     -406.358     205.746     342.118
  O     -405.798     207.890     340.824
  H     -407.122     206.311     342.363
  H     -402.727     204.562     341.879
  H     -404.154     203.961     341.068
  H     -404.278     204.616     342.684

 6  7  8  9  10  11  12  13  14  15  16  26  30  31  32  33  35 0
 6-311+G(2d,p)
 ****
 37  38 0
 6-311+G(2d,p)
 ****
 1  2  3  4  5  17  18  19  20  21  22  23  24  25 0
 3-21G
 ****
 27  28  29  34  36  39  40  41  42  43  44  45  46 0
 3-21G
 ****


