%nproc=1
%NoSave
%Mem=1900MB
#P OB98/GEN NMR

erre ene a

0 1
  C     -137.002    -198.686      83.699
  O     -136.985    -199.116      85.047
  H     -137.148    -197.603      83.677
  H     -137.826    -199.163      83.161
  H     -136.050    -198.924      83.215
  P     -136.755    -200.685      85.294
  C     -134.668    -200.447      86.810
  O     -136.054    -200.759      86.735
  C     -134.139    -200.687      88.224
  O     -134.697    -199.730      89.141
  C     -134.486    -202.057      88.797
  O     -133.589    -203.049      88.313
  C     -134.287    -201.801      90.284
  O     -132.884    -201.852      90.605
  C     -134.810    -200.361      90.445
  N     -138.270    -201.907      93.914
  C     -137.022    -202.344      93.634
  N     -136.176    -201.913      92.670
  C     -136.735    -200.927      91.950
  C     -137.999    -200.380      92.118
  C     -138.780    -200.902      93.161
  N     -140.052    -200.448      93.447
  N     -138.229    -199.385      91.191
  C     -137.104    -199.298      90.510
  N     -136.182    -200.236      90.907
  O     -136.078    -201.422      84.190
  O     -138.251    -201.166      85.617
  H     -132.755    -201.362      91.441
  H     -138.716    -200.498      86.152
  H     -136.651    -203.141      94.268
  H     -136.900    -198.569      89.733
  H     -134.194    -199.782      91.145
  H     -134.785    -202.549      90.905
  H     -135.531    -202.319      88.615
  H     -133.053    -200.531      88.208
  H     -134.496    -199.405      86.520
  H     -140.604    -200.989      94.097
  H     -140.476    -199.791      92.812
  H     -134.146    -201.097      86.099
  P     -134.106    -204.533      87.998
  C     -132.674    -204.462      85.862
  O     -133.013    -205.203      87.030
  O     -135.510    -204.623      87.504
  O     -133.908    -205.328      89.371
  H     -134.648    -205.950      89.515
  H     -131.942    -205.001      85.297
  H     -132.275    -203.511      86.146
  H     -133.550    -204.317      85.265

 6  7  8  9  10  11  12  13  14  15  25  28  32  33  34  35 0
 6-311+G(2d,p)
 ****
 36  39  40 0
 6-311+G(2d,p)
 ****
 1  2  3  4  5  16  17  18  19  20  21  22  23  24 0
 3-21G
 ****
 26  27  29  30  31  37  38  41  42  43  44  45  46  47 0
 3-21G
 ****
 48 0
 3-21G
 ****


