%nproc=1
%NoSave
%Mem=1900MB
#P OB98/GEN NMR

erre ene a

0 1
  C     -258.872     -32.921     406.576
  O     -258.121     -32.208     405.615
  P     -257.520     -32.956     404.329
  C     -258.602     -31.641     402.393
  O     -258.645     -32.822     403.191
  C     -259.820     -31.563     401.471
  O     -261.022     -31.344     402.238
  C     -259.763     -30.425     400.459
  O     -258.898     -30.755     399.389
  C     -261.232     -30.304     400.071
  O     -261.589     -31.275     399.077
  C     -261.944     -30.606     401.411
  N     -262.419     -29.395     402.072
  C     -263.773     -29.087     401.883
  O     -264.479     -29.798     401.168
  N     -264.279     -27.952     402.469
  C     -263.493     -27.184     403.159
  N     -264.051     -26.068     403.709
  C     -262.056     -27.456     403.359
  C     -261.590     -28.567     402.789
  O     -257.018     -34.339     404.574
  O     -256.382     -31.946     403.825
  H     -260.929     -31.188     398.362
  H     -255.588     -31.975     404.414
  H     -261.443     -26.780     403.932
  H     -260.547     -28.842     402.880
  H     -262.806     -31.265     401.244
  H     -261.465     -29.317     399.658
  H     -259.435     -29.504     400.954
  H     -259.916     -32.529     400.956
  H     -265.032     -25.902     403.526
  H     -257.692     -31.666     401.788
  H     -263.526     -25.386     404.233
  H     -258.555     -30.763     403.050
  P     -257.520     -29.966     399.209
  C     -256.183     -32.077     398.625
  O     -256.323     -30.986     399.514
  O     -257.434     -28.654     399.918
  O     -257.415     -29.758     397.622
  H     -257.129     -28.840     397.437
  H     -255.176     -32.489     398.731
  H     -256.332     -31.762     397.589
  H     -256.913     -32.854     398.881
  H     -259.183     -32.254     407.352
  H     -258.268     -33.699     406.995
  H     -259.733     -33.351     406.108

 3  4  5  6  7  8  9  10  11  12  13  23  27  28  29  30  32 0
 6-311+G(2d,p)
 ****
 34  35 0
 6-311+G(2d,p)
 ****
 1  2  14  15  16  17  18  19  20  21  22  24  25  26 0
 3-21G
 ****
 31  33  36  37  38  39  40  41  42  43  44  45  46 0
 3-21G
 ****


