%nproc=1
%NoSave
%Mem=1900MB
#P OB98/GEN NMR

erre ene a

0 1
  C      -10.892     129.735     -94.645
  O      -10.079     129.236     -95.689
  H      -11.797     129.127     -94.585
  H      -11.176     130.770     -94.858
  H      -10.362     129.681     -93.690
  P       -8.614     129.878     -95.834
  C       -7.910     132.400     -96.030
  O       -8.848     131.383     -96.333
  C       -7.892     133.462     -97.131
  O       -7.142     132.948     -98.260
  C       -9.285     133.851     -97.632
  O       -9.276     135.244     -97.952
  C       -9.434     133.043     -98.910
  O      -10.389     133.616     -99.799
  C       -7.986     133.029     -99.427
  N       -7.735     131.925    -100.351
  C       -8.180     132.093    -101.666
  O       -8.765     133.126    -101.995
  N       -7.993     131.076    -102.565
  C       -7.466     129.959    -102.172
  N       -7.330     128.980    -103.106
  C       -7.022     129.720    -100.785
  C       -7.176     130.738     -99.939
  O       -8.055     129.129     -97.133
  O       -7.756     129.734     -94.622
  H      -10.604     132.956    -100.494
  H       -8.701     129.076     -97.857
  H       -6.599     128.768    -100.502
  H       -6.871     130.653     -98.903
  H       -7.753     133.969     -99.942
  H       -9.762     132.024     -98.675
  H      -10.070     133.644     -96.904
  H       -7.348     134.338     -96.760
  H       -7.669     129.177    -104.039
  H       -6.908     131.973     -95.922
  H       -6.986     128.053    -102.901
  H       -8.194     132.848     -95.073
  P      -10.245     136.241     -97.159
  C      -12.787     136.540     -96.791
  O      -11.763     135.965     -97.593
  O       -9.835     137.674     -97.154
  O      -10.207     135.650     -95.663
  H      -10.170     136.405     -95.045
  H      -13.744     136.277     -97.192
  H      -12.682     137.605     -96.788
  H      -12.706     136.170     -95.790

 6  7  8  9  10  11  12  13  14  15  16  26  30  31  32  33  35 0
 6-311+G(2d,p)
 ****
 37  38 0
 6-311+G(2d,p)
 ****
 1  2  3  4  5  17  18  19  20  21  22  23  24  25 0
 3-21G
 ****
 27  28  29  34  36  39  40  41  42  43  44  45  46 0
 3-21G
 ****


