%nproc=1
%NoSave
%Mem=1900MB
#P OB98/GEN NMR

erre ene a

0 1
  C      288.533      29.368      54.743
  O      287.627      28.286      54.467
  P      287.477      27.098      55.542
  C      285.582      28.142      57.013
  O      285.980      27.114      56.118
  C      284.909      27.536      58.247
  O      284.810      28.517      59.304
  C      283.483      27.059      58.014
  O      283.443      25.823      57.320
  C      282.957      26.970      59.441
  O      283.346      25.730      60.057
  C      283.669      28.159      60.116
  N      282.783      29.301      60.325
  C      281.973      29.257      61.453
  O      281.937      28.296      62.220
  N      281.171      30.348      61.655
  C      281.054      31.423      60.821
  O      280.302      32.363      61.047
  C      281.875      31.375      59.604
  C      282.685      30.331      59.412
  O      288.317      27.667      56.785
  O      288.001      25.768      55.115
  H      283.017      25.015      59.478
  H      288.675      26.923      57.304
  H      280.597      30.349      62.483
  H      281.794      32.197      58.905
  H      283.298      30.281      58.516
  H      284.077      27.852      61.087
  H      281.865      27.023      59.489
  H      282.917      27.825      57.470
  H      285.537      26.710      58.607
  H      284.874      28.805      56.508
  H      286.463      28.724      57.302
  P      282.729      25.825      55.882
  C      284.594      26.471      54.167
  O      283.886      25.451      54.838
  O      282.471      27.392      55.674
  O      281.502      24.980      55.837
  H      283.170      27.935      56.074
  H      284.707      27.360      54.792
  H      284.062      26.737      53.249
  H      285.587      26.095      53.904
  H      288.512      30.066      53.933
  H      289.525      28.983      54.856
  H      288.237      29.860      55.646

 3  4  5  6  7  8  9  10  11  12  13  23  28  29  30  31  32 0
 6-311+G(2d,p)
 ****
 33  34 0
 6-311+G(2d,p)
 ****
 1  2  14  15  16  17  18  19  20  21  22  24  25  26 0
 3-21G
 ****
 27  35  36  37  38  39  40  41  42  43  44  45 0
 3-21G
 ****


