%nproc=1
%NoSave
%Mem=1900MB
#P OB98/GEN NMR

erre ene a

0 1
  C      343.134    -529.164    -592.687
  O      342.616    -528.908    -593.984
  P      341.370    -529.794    -594.477
  C      339.946    -527.835    -595.405
  O      340.665    -529.022    -595.698
  C      339.429    -527.188    -596.683
  O      340.562    -526.673    -597.464
  C      338.647    -528.142    -597.612
  O      337.604    -527.405    -598.280
  C      339.663    -528.540    -598.648
  O      339.041    -528.988    -599.856
  C      340.472    -527.249    -598.788
  N      343.099    -528.086    -603.015
  C      341.803    -527.643    -602.863
  N      341.095    -527.480    -604.012
  N      341.270    -527.366    -601.719
  C      342.089    -527.585    -600.665
  C      343.407    -528.009    -600.688
  C      343.985    -528.314    -601.974
  O      345.125    -528.734    -602.175
  N      343.941    -528.069    -599.427
  C      342.946    -527.740    -598.633
  N      341.798    -527.458    -599.331
  O      340.310    -529.630    -593.278
  O      341.695    -531.235    -594.730
  H      338.649    -528.207    -600.265
  H      340.289    -530.464    -592.745
  H      343.478    -528.290    -603.926
  H      342.980    -527.691    -597.538
  H      339.955    -526.539    -599.433
  H      340.280    -529.360    -598.261
  H      341.437    -527.740    -604.921
  H      338.206    -529.005    -597.083
  H      340.118    -527.202    -603.915
  H      338.820    -526.312    -596.417
  H      340.579    -527.131    -594.880
  H      339.092    -528.081    -594.751
  P      336.098    -527.922    -598.016
  C      335.271    -525.629    -598.943
  O      335.163    -527.048    -598.963
  O      335.786    -527.380    -596.546
  O      335.940    -529.407    -598.126
  H      335.110    -527.930    -596.120
  H      335.608    -525.282    -599.914
  H      335.972    -525.285    -598.161
  H      334.284    -525.216    -598.717
  H      343.955    -528.505    -592.494
  H      343.470    -530.178    -592.631
  H      342.367    -529.002    -591.958

 3  4  5  6  7  8  9  10  11  12  23  26  30  31 0
 6-311+G(2d,p)
 ****
 33  35  36  37  38 0
 6-311+G(2d,p)
 ****
 1  2  13  14  15  16  17  18  19  20  21  22  24  25 0
 3-21G
 ****
 27  28  29  32  34  39  40  41  42  43  44  45  46  47  48  49 0
 3-21G
 ****


