%nproc=1
%NoSave
%Mem=1900MB
#P OB98/GEN NMR

erre ene a

0 1
  C     -135.567     226.187     175.074
  O     -136.546     225.430     175.801
  P     -136.427     225.106     177.368
  C     -137.807     227.018     178.435
  O     -137.759     225.639     178.090
  C     -137.997     227.194     179.944
  O     -137.826     228.584     180.313
  C     -139.379     226.837     180.470
  O     -139.600     225.440     180.505
  C     -139.356     227.505     181.844
  O     -138.729     226.664     182.823
  C     -138.488     228.752     181.589
  N     -139.250     229.990     181.624
  C     -139.510     230.530     182.885
  O     -139.176     229.926     183.904
  N     -140.161     231.737     182.961
  C     -140.606     232.298     181.880
  N     -141.226     233.502     182.015
  C     -140.471     231.693     180.542
  C     -139.786     230.552     180.488
  O     -135.166     225.600     177.995
  O     -136.540     223.513     177.480
  H     -136.080     223.209     178.283
  H     -139.283     225.864     182.905
  H     -140.893     232.174     179.672
  H     -139.627     230.046     179.541
  H     -137.680     228.806     182.327
  H     -140.364     227.729     182.210
  H     -140.140     227.320     179.845
  H     -137.228     226.600     180.455
  H     -141.294     233.893     182.944
  H     -138.657     227.476     177.916
  H     -141.587     234.033     181.235
  H     -136.888     227.507     178.096
  P     -140.954     224.901     179.837
  C     -140.744     224.849     177.251
  O     -140.564     224.159     178.472
  O     -141.692     226.238     179.350
  O     -141.825     224.107     180.755
  H     -142.652     226.157     179.501
  H     -140.028     224.462     176.522
  H     -140.589     225.925     177.367
  H     -141.756     224.667     176.881
  H     -135.867     226.268     174.050
  H     -134.620     225.692     175.130
  H     -135.484     227.165     175.500

 3  4  5  6  7  8  9  10  11  12  13  24  27  28  29  30  32 0
 6-311+G(2d,p)
 ****
 34  35 0
 6-311+G(2d,p)
 ****
 1  2  14  15  16  17  18  19  20  21  22  23  25  26 0
 3-21G
 ****
 31  33  36  37  38  39  40  41  42  43  44  45  46 0
 3-21G
 ****


