%nproc=1
%NoSave
%Mem=1900MB
#P OB98/GEN NMR

erre ene a

0 1
  C     -205.917     180.813      71.909
  O     -205.553     181.366      73.164
  P     -204.558     180.497      74.083
  C     -204.827     178.139      75.175
  O     -205.448     179.337      74.736
  C     -205.625     177.543      76.337
  O     -205.372     178.280      77.551
  C     -207.133     177.563      76.135
  O     -207.542     176.471      75.328
  C     -207.632     177.484      77.573
  O     -207.609     176.127      78.054
  C     -206.606     178.352      78.315
  N     -208.058     181.854      81.665
  C     -207.892     180.486      81.820
  N     -208.104     179.993      83.061
  N     -207.552     179.683      80.847
  C     -207.387     180.312      79.662
  C     -207.537     181.651      79.379
  C     -207.864     182.540      80.472
  O     -207.925     183.764      80.410
  N     -207.310     181.914      78.053
  C     -206.993     180.740      77.543
  N     -207.003     179.740      78.481
  O     -204.240     181.480      75.300
  O     -203.320     180.011      73.393
  H     -208.263     175.599      77.562
  H     -203.380     181.926      75.168
  H     -208.307     182.427      82.451
  H     -206.726     180.568      76.511
  H     -206.386     177.963      79.319
  H     -208.669     177.832      77.669
  H     -208.392     180.550      83.850
  H     -207.447     178.512      75.684
  H     -207.989     178.994      83.190
  H     -205.271     176.514      76.493
  H     -203.812     178.364      75.512
  H     -204.775     177.433      74.337
  P     -208.811     176.685      74.374
  C     -211.319     177.253      74.762
  O     -210.100     176.797      75.322
  O     -208.980     175.265      73.658
  O     -208.657     177.786      73.375
  H     -209.284     175.395      72.736
  H     -212.145     176.799      75.308
  H     -211.402     176.994      73.704
  H     -211.373     178.341      74.867
  H     -206.577     181.485      71.401
  H     -206.411     179.876      72.062
  H     -205.038     180.661      71.318

 3  4  5  6  7  8  9  10  11  12  23  26  30  31 0
 6-311+G(2d,p)
 ****
 33  35  36  37  38 0
 6-311+G(2d,p)
 ****
 1  2  13  14  15  16  17  18  19  20  21  22  24  25 0
 3-21G
 ****
 27  28  29  32  34  39  40  41  42  43  44  45  46  47  48  49 0
 3-21G
 ****


