%nproc=1
%NoSave
%Mem=1900MB
#P OB98/GEN NMR

erre ene a

0 1
  C      103.332    -101.866     -35.497
  O      103.253    -101.027     -36.632
  P      104.241    -101.249     -37.872
  C      106.751    -101.684     -38.210
  O      105.749    -101.177     -37.334
  C      108.069    -100.943     -37.999
  O      107.994     -99.598     -38.527
  C      108.458    -100.771     -36.539
  O      108.902    -101.984     -35.961
  C      109.517     -99.682     -36.646
  O      110.782    -100.235     -37.037
  C      108.943     -98.801     -37.776
  N      108.332     -97.580     -37.274
  C      109.076     -96.407     -37.440
  O      110.212     -96.451     -37.910
  N      108.511     -95.215     -37.058
  C      107.365     -95.209     -36.451
  N      106.829     -93.996     -36.151
  C      106.626     -96.443     -36.113
  C      107.150     -97.579     -36.570
  O      103.962    -100.401     -39.068
  O      104.070    -102.802     -38.229
  H      103.905    -102.888     -39.188
  H      111.016    -100.899     -36.358
  H      105.708     -96.388     -35.546
  H      106.664     -98.531     -36.388
  H      109.734     -98.534     -38.486
  H      109.672     -99.157     -35.697
  H      107.600    -100.391     -35.972
  H      108.854    -101.483     -38.545
  H      107.357     -93.173     -36.415
  H      106.414    -101.549     -39.241
  H      105.834     -93.866     -35.985
  H      106.878    -102.756     -38.026
  P      108.664    -102.167     -34.385
  C      109.394    -100.931     -32.231
  O      109.477    -101.007     -33.639
  O      109.493    -103.494     -34.039
  O      107.232    -102.301     -33.984
  H      109.020    -104.007     -33.358
  H      110.241    -100.347     -31.861
  H      109.425    -101.924     -31.773
  H      108.467    -100.425     -31.946
  H      102.598    -101.565     -34.779
  H      104.307    -101.789     -35.063
  H      103.151    -102.879     -35.789

 3  4  5  6  7  8  9  10  11  12  13  24  27  28  29  30  32 0
 6-311+G(2d,p)
 ****
 34  35 0
 6-311+G(2d,p)
 ****
 1  2  14  15  16  17  18  19  20  21  22  23  25  26 0
 3-21G
 ****
 31  33  36  37  38  39  40  41  42  43  44  45  46 0
 3-21G
 ****


