%nproc=1
%NoSave
%Mem=1900MB
#P OB98/GEN NMR

erre ene a

0 1
  C      166.323     545.171    -460.942
  O      165.850     545.897    -459.832
  P      165.174     547.335    -460.051
  C      162.957     546.088    -460.437
  O      163.599     547.182    -459.782
  C      161.486     546.022    -460.043
  O      161.351     545.800    -458.623
  C      160.705     547.298    -460.326
  O      160.397     547.407    -461.705
  C      159.493     547.113    -459.424
  O      158.517     546.268    -460.046
  C      160.110     546.414    -458.205
  N      157.999     548.702    -454.163
  C      157.468     547.979    -455.170
  N      158.090     547.434    -456.238
  C      159.401     547.720    -456.208
  C      160.088     548.482    -455.264
  C      159.331     548.965    -454.179
  N      159.878     549.650    -453.123
  N      161.422     548.574    -455.601
  C      161.542     547.901    -456.728
  N      160.361     547.318    -457.094
  O      165.533     548.027    -461.324
  O      165.666     548.181    -458.786
  H      158.238     546.699    -460.875
  H      166.181     548.953    -459.089
  H      156.398     547.812    -455.107
  H      162.456     547.794    -457.305
  H      159.471     545.610    -457.831
  H      158.997     548.065    -459.181
  H      161.276     548.169    -459.986
  H      161.027     545.167    -460.559
  H      163.462     545.162    -460.147
  H      159.274     549.825    -452.329
  H      160.885     549.587    -452.967
  H      163.048     546.214    -461.524
  P      160.408     548.848    -462.411
  C      162.777     548.630    -463.365
  O      161.401     548.742    -463.664
  O      160.643     550.008    -461.505
  O      158.967     548.928    -463.110
  H      158.670     549.858    -463.125
  H      163.183     549.610    -463.093
  H      163.308     548.265    -464.251
  H      162.942     547.923    -462.541
  H      166.739     544.243    -460.610
  H      167.077     545.740    -461.445
  H      165.513     544.979    -461.614

 3  4  5  6  7  8  9  10  11  12  22  25  29  30  31  32 0
 6-311+G(2d,p)
 ****
 33  36  37 0
 6-311+G(2d,p)
 ****
 1  2  13  14  15  16  17  18  19  20  21  23  24  26 0
 3-21G
 ****
 27  28  34  35  38  39  40  41  42  43  44  45  46  47  48 0
 3-21G
 ****


