%nproc=1
%NoSave
%Mem=1900MB
#P OB98/GEN NMR

erre ene a

0 1
  C      304.878    -359.184     243.946
  O      305.403    -357.848     243.933
  P      306.780    -357.559     243.147
  C      308.375    -358.027     245.125
  O      307.956    -358.419     243.820
  C      309.822    -358.466     245.405
  O      310.271    -357.911     246.668
  C      309.978    -359.994     245.480
  O      311.022    -360.505     244.653
  C      310.123    -360.263     246.970
  O      310.773    -361.494     247.255
  C      310.798    -358.981     247.481
  N      310.538    -358.760     248.919
  C      311.100    -359.681     249.786
  O      311.717    -360.679     249.415
  N      310.883    -359.446     251.128
  C      310.110    -358.456     251.648
  O      309.897    -358.313     252.852
  C      309.480    -357.541     250.663
  C      309.729    -357.741     249.362
  O      307.100    -356.117     242.919
  O      306.559    -358.315     241.749
  H      310.875    -361.562     248.235
  H      306.946    -357.768     241.045
  H      311.299    -360.100     251.770
  H      308.845    -356.763     251.042
  H      309.267    -357.096     248.616
  H      311.878    -359.030     247.344
  H      309.119    -360.334     247.412
  H      309.073    -360.507     245.108
  H      310.443    -358.067     244.603
  H      307.708    -358.482     245.868
  H      308.254    -356.931     245.229
  P      310.792    -361.176     243.214
  C      311.336    -363.657     243.801
  O      310.353    -362.707     243.440
  O      311.908    -360.994     242.232
  O      309.458    -360.475     242.680
  H      309.553    -360.282     241.730
  H      310.963    -364.654     243.548
  H      311.516    -363.595     244.883
  H      312.276    -363.480     243.266
  H      303.967    -359.204     244.506
  H      305.589    -359.842     244.399
  H      304.687    -359.502     242.942

 3  4  5  6  7  8  9  10  11  12  13  23  28  29  30  31  32 0
 6-311+G(2d,p)
 ****
 33  34 0
 6-311+G(2d,p)
 ****
 1  2  14  15  16  17  18  19  20  21  22  24  25  26  27 0
 3-21G
 ****
 35  36  37  38  39  40  41  42  43  44  45 0
 3-21G
 ****


