%nproc=1
%NoSave
%Mem=1900MB
#P OB98/GEN NMR

erre ene a

0 1
  C     -602.307     619.628     545.360
  O     -601.460     619.364     546.477
  P     -600.392     618.175     546.401
  C     -598.799     619.305     544.703
  O     -598.959     618.776     546.013
  C     -597.798     618.458     543.904
  O     -598.034     618.560     542.483
  C     -596.360     618.904     544.100
  O     -595.784     618.683     545.368
  C     -595.658     618.289     542.902
  O     -595.323     616.921     543.138
  C     -596.766     618.379     541.810
  N     -596.515     619.469     540.858
  C     -596.785     619.179     539.522
  O     -597.173     618.077     539.131
  N     -596.569     620.201     538.642
  C     -596.088     621.444     538.942
  O     -595.890     622.306     538.107
  C     -595.797     621.679     540.357
  C     -596.015     620.693     541.243
  O     -600.813     616.982     545.622
  O     -600.192     617.782     547.949
  H     -596.154     616.448     543.328
  H     -600.145     616.805     548.000
  H     -596.768     620.013     537.667
  H     -595.406     622.649     540.643
  H     -595.812     620.853     542.302
  H     -596.823     617.452     541.252
  H     -594.733     618.810     542.646
  H     -596.332     620.006     543.948
  H     -597.929     617.411     544.192
  H     -598.457     620.337     544.753
  H     -599.783     619.333     544.209
  P     -595.056     619.835     546.227
  C     -596.556     620.573     548.216
  O     -595.539     619.707     547.752
  O     -595.013     621.203     545.633
  O     -593.551     619.258     546.307
  H     -592.937     620.016     546.323
  H     -596.745     620.355     549.266
  H     -597.485     620.398     547.655
  H     -596.248     621.622     548.105
  H     -602.952     620.451     545.588
  H     -602.897     618.761     545.147
  H     -601.708     619.870     544.507

 3  4  5  6  7  8  9  10  11  12  13  23  28  29  30  31  32 0
 6-311+G(2d,p)
 ****
 33  34 0
 6-311+G(2d,p)
 ****
 1  2  14  15  16  17  18  19  20  21  22  24  25  26  27 0
 3-21G
 ****
 35  36  37  38  39  40  41  42  43  44  45 0
 3-21G
 ****


