%nproc=1
%NoSave
%Mem=1900MB
#P OB98/GEN NMR

erre ene a

0 1
  C     -388.023     183.501     -27.155
  O     -387.853     184.502     -28.164
  P     -386.491     184.422     -29.020
  C     -387.322     183.786     -31.397
  O     -386.707     183.345     -30.196
  C     -387.055     182.801     -32.537
  O     -387.676     181.519     -32.310
  C     -387.565     183.282     -33.887
  O     -386.661     184.222     -34.446
  C     -387.645     181.977     -34.670
  O     -386.364     181.632     -35.242
  C     -388.047     180.957     -33.598
  N     -391.549     177.729     -35.347
  C     -390.214     177.874     -35.702
  N     -389.754     177.021     -36.640
  N     -389.422     178.769     -35.182
  C     -390.028     179.553     -34.260
  C     -391.330     179.491     -33.811
  C     -392.197     178.492     -34.393
  O     -393.375     178.315     -34.099
  N     -391.569     180.418     -32.820
  C     -390.445     181.120     -32.769
  N     -389.457     180.598     -33.573
  O     -385.465     183.697     -28.014
  O     -385.982     185.755     -29.450
  H     -385.741     181.419     -34.517
  H     -384.792     184.335     -27.713
  H     -392.116     177.026     -35.786
  H     -390.280     181.988     -32.148
  H     -387.495     180.015     -33.702
  H     -388.341     182.053     -35.514
  H     -390.303     176.299     -37.077
  H     -388.567     183.714     -33.774
  H     -388.768     177.095     -36.902
  H     -385.969     182.647     -32.579
  H     -386.939     184.779     -31.670
  H     -388.399     183.902     -31.217
  P     -387.248     185.620     -34.957
  C     -386.863     187.122     -32.865
  O     -387.787     186.408     -33.680
  O     -388.580     185.188     -35.746
  O     -386.325     186.392     -35.847
  H     -388.639     185.681     -36.588
  H     -387.374     187.975     -32.410
  H     -386.015     187.487     -33.456
  H     -386.508     186.462     -32.081
  H     -388.957     183.653     -26.655
  H     -387.224     183.569     -26.447
  H     -388.015     182.532     -27.609

 3  4  5  6  7  8  9  10  11  12  23  26  30  31 0
 6-311+G(2d,p)
 ****
 33  35  36  37  38 0
 6-311+G(2d,p)
 ****
 1  2  13  14  15  16  17  18  19  20  21  22  24  25 0
 3-21G
 ****
 27  28  29  32  34  39  40  41  42  43  44  45  46  47  48  49 0
 3-21G
 ****


