%nproc=1
%NoSave
%Mem=1900MB
#P OB98/GEN NMR

erre ene a

0 1
  C       99.382       8.846     -27.006
  O       99.656      10.094     -27.648
  P       98.425      11.120     -27.745
  C       99.035      12.295     -25.513
  O       98.825      12.435     -26.912
  C       99.919      13.425     -24.975
  O      101.320      13.190     -25.308
  C       99.551      14.814     -25.529
  O       99.786      15.756     -24.472
  C      100.571      14.989     -26.645
  O      100.695      16.332     -27.083
  C      101.799      14.384     -25.973
  N      105.889      16.256     -28.381
  C      105.008      16.818     -27.527
  N      103.936      16.249     -26.928
  C      103.826      14.960     -27.289
  C      104.645      14.246     -28.151
  C      105.726      14.950     -28.713
  N      106.618      14.391     -29.600
  N      104.191      12.942     -28.290
  C      103.077      12.905     -27.580
  N      102.865      14.068     -26.896
  O       97.290      10.430     -26.852
  O       97.970      11.378     -29.143
  H      101.388      16.393     -27.773
  H       96.650       9.961     -27.418
  H      105.181      17.864     -27.296
  H      102.395      12.066     -27.528
  H      102.219      15.043     -25.204
  H      100.266      14.387     -27.511
  H       98.512      14.893     -25.858
  H       99.841      13.432     -23.879
  H       99.513      11.335     -25.301
  H      107.359      14.977     -29.954
  H      106.522      13.425     -29.881
  H       98.063      12.273     -25.005
  P       98.570      16.676     -23.976
  C       97.731      15.054     -22.172
  O       98.376      16.289     -22.427
  O       97.328      15.913     -24.648
  O       98.656      18.127     -24.316
  H       97.359      14.958     -24.460
  H       97.737      14.874     -21.094
  H       98.260      14.238     -22.673
  H       96.694      15.097     -22.518
  H      100.268       8.247     -26.999
  H       98.609       8.333     -27.539
  H       99.064       9.025     -26.000

 3  4  5  6  7  8  9  10  11  12  22  25  29  30  31  32 0
 6-311+G(2d,p)
 ****
 33  36  37 0
 6-311+G(2d,p)
 ****
 1  2  13  14  15  16  17  18  19  20  21  23  24  26 0
 3-21G
 ****
 27  28  34  35  38  39  40  41  42  43  44  45  46  47  48 0
 3-21G
 ****


