%nproc=1
%NoSave
%Mem=1900MB
#P OB98/GEN NMR

erre ene a

0 1
  C     -197.007     203.582      70.373
  O     -196.985     204.974      70.621
  H     -196.346     203.089      71.090
  H     -196.649     203.365      69.363
  H     -198.019     203.189      70.503
  P     -197.815     205.936      69.648
  C     -195.872     207.644      69.674
  O     -197.260     207.419      69.898
  C     -195.527     209.117      69.887
  O     -196.227     209.939      68.930
  C     -195.914     209.655      71.259
  O     -195.013     209.198      72.246
  C     -195.887     211.151      70.989
  O     -194.540     211.649      70.987
  C     -196.494     211.212      69.566
  N     -197.923     211.507      69.555
  C     -198.271     212.858      69.455
  O     -197.397     213.723      69.398
  N     -199.605     213.190      69.443
  C     -200.507     212.261      69.480
  N     -201.807     212.657      69.460
  C     -200.181     210.824      69.550
  C     -198.884     210.522      69.595
  O     -199.307     205.816      69.713
  O     -197.258     205.583      68.190
  H     -194.243     211.631      71.917
  H     -197.822     204.909      67.763
  H     -200.965     210.082      69.570
  H     -198.559     209.487      69.647
  H     -195.984     211.977      68.966
  H     -196.436     211.718      71.741
  H     -196.943     209.367      71.503
  H     -194.452     209.241      69.705
  H     -201.982     213.655      69.392
  H     -195.661     207.355      68.639
  H     -202.581     212.024      69.321
  H     -195.268     207.016      70.337
  P     -195.406     208.024      73.265
  C     -195.453     209.554      75.330
  O     -194.810     208.464      74.688
  O     -195.031     206.651      72.823
  O     -196.979     208.220      73.475
  H     -197.478     207.869      72.694
  H     -194.970     209.753      76.264
  H     -196.480     209.310      75.504
  H     -195.394     210.421      74.706

 6  7  8  9  10  11  12  13  14  15  16  26  30  31  32  33  35 0
 6-311+G(2d,p)
 ****
 37  38 0
 6-311+G(2d,p)
 ****
 1  2  3  4  5  17  18  19  20  21  22  23  24  25 0
 3-21G
 ****
 27  28  29  34  36  39  40  41  42  43  44  45  46 0
 3-21G
 ****


