%nproc=1
%NoSave
%Mem=1900MB
#P OB98/GEN NMR

erre ene a

0 1
  C      279.365    -433.157     -38.263
  O      280.537    -432.882     -37.521
  H      278.835    -433.986     -37.784
  H      279.626    -433.445     -39.288
  H      278.710    -432.281     -38.277
  P      281.456    -431.674     -38.054
  C      281.934    -430.901     -35.611
  O      282.468    -431.324     -36.855
  C      283.039    -430.833     -34.552
  O      283.350    -432.196     -34.109
  C      284.356    -430.224     -35.061
  O      285.027    -429.608     -33.949
  C      285.128    -431.465     -35.493
  O      286.493    -431.174     -35.696
  C      284.761    -432.398     -34.344
  N      287.958    -436.303     -33.480
  C      287.937    -435.040     -33.007
  N      287.041    -434.059     -33.271
  C      286.092    -434.500     -34.106
  C      285.974    -435.760     -34.674
  C      286.969    -436.695     -34.324
  N      287.004    -437.972     -34.819
  N      284.856    -435.833     -35.489
  C      284.308    -434.642     -35.422
  N      285.019    -433.799     -34.603
  O      280.446    -430.430     -38.079
  O      282.102    -431.895     -39.376
  H      286.863    -430.708     -34.918
  H      280.067    -430.328     -38.974
  H      288.744    -434.779     -32.317
  H      283.407    -434.319     -35.931
  H      285.282    -432.137     -33.416
  H      284.745    -431.854     -36.442
  H      284.216    -429.488     -35.856
  H      282.668    -430.299     -33.667
  H      281.160    -431.604     -35.298
  H      281.482    -429.902     -35.731
  H      287.765    -438.576     -34.534
  H      286.283    -438.275     -35.468
  P      285.850    -428.249     -34.183
  C      285.681    -427.004     -31.888
  O      286.467    -427.774     -32.775
  O      284.678    -427.183     -34.408
  O      286.793    -428.257     -35.345
  H      284.998    -426.453     -34.981
  H      286.250    -426.781     -31.009
  H      284.806    -427.556     -31.616
  H      285.393    -426.092     -32.367

 6  7  8  9  10  11  12  13  14  15  25  28  32  33  34  35 0
 6-311+G(2d,p)
 ****
 36  37  40 0
 6-311+G(2d,p)
 ****
 1  2  3  4  5  16  17  18  19  20  21  22  23  24 0
 3-21G
 ****
 26  27  29  30  31  38  39 41  42  43  44  45  46  47  48 0
 3-21G
 ****


