%nproc=1
%NoSave
%Mem=1900MB
#P OB98/GEN NMR

erre ene a

0 1
  C      262.066     411.072     362.525
  O      263.079     412.010     362.823
  H      261.114     411.599     362.443
  H      261.988     410.337     363.332
  H      262.270     410.563     361.579
  P      264.605     411.526     362.820
  C      265.726     412.802     364.768
  O      265.481     412.753     363.371
  C      265.078     414.051     365.389
  O      263.639     413.815     365.511
  C      265.597     414.395     366.797
  O      265.496     415.819     366.945
  C      264.580     413.675     367.665
  O      264.659     414.045     369.019
  C      263.298     414.035     366.895
  N      262.116     413.266     367.264
  C      261.472     413.602     368.449
  O      261.827     414.505     369.210
  N      260.366     412.854     368.761
  C      259.853     411.832     368.013
  O      258.837     411.215     368.327
  C      260.579     411.520     366.773
  C      261.656     412.245     366.456
  O      265.095     410.923     361.543
  O      264.673     410.478     364.030
  H      264.657     409.568     363.674
  H      265.598     414.028     369.299
  H      259.882     413.081     369.619
  H      260.202     410.711     366.160
  H      262.207     412.041     365.543
  H      263.087     415.100     367.009
  H      264.764     412.597     367.637
  H      266.635     414.084     366.964
  H      265.203     414.893     364.701
  H      266.809     412.831     364.924
  H      265.318     411.899     365.237
  P      266.515     416.695     367.827
  C      264.884     417.547     369.645
  O      265.682     417.884     368.523
  O      267.716     417.166     367.071
  O      266.937     415.754     369.051
  H      267.817     416.015     369.378
  H      264.389     418.424     370.007
  H      265.506     417.145     370.417
  H      264.155     416.818     369.358

 6  7  8  9  10  11  12  13  14  15  16  27  31  32  33  34  35 0
 6-311+G(2d,p)
 ****
 36  37 0
 6-311+G(2d,p)
 ****
 1  2  3  4  5  17  18  19  20  21  22  23  24  25 0
 3-21G
 ****
 26  28  29  30  38  39  40  41  42  43  44  45 0
 3-21G
 ****


