%nproc=1
%NoSave
%Mem=1900MB
#P OB98/GEN NMR

erre ene a

0 1
  C     -397.784     213.262    -895.700
  O     -397.611     212.726    -896.990
  H     -398.812     213.072    -895.380
  H     -397.608     214.341    -895.720
  H     -397.107     212.794    -894.980
  P     -396.122     212.574    -897.570
  C     -396.348     210.140    -898.400
  O     -395.736     211.026    -897.470
  C     -397.329     209.201    -897.700
  O     -398.449     209.986    -897.180
  C     -397.922     208.165    -898.670
  O     -398.305     206.963    -898.010
  C     -399.179     208.867    -899.180
  O     -400.160     207.966    -899.680
  C     -399.617     209.632    -897.930
  N     -404.103     212.043    -897.560
  C     -403.800     210.723    -897.280
  N     -404.813     209.947    -896.850
  N     -402.602     210.207    -897.450
  C     -401.702     211.080    -897.950
  C     -401.888     212.409    -898.280
  C     -403.205     212.968    -898.070
  O     -403.538     214.126    -898.320
  N     -400.741     212.963    -898.790
  C     -399.861     211.987    -898.760
  N     -400.386     210.824    -898.240
  O     -395.210     213.239    -896.430
  O     -395.876     213.207    -898.910
  H     -400.356     207.324    -898.970
  H     -394.351     213.516    -896.810
  H     -405.033     212.400    -897.400
  H     -398.831     212.069    -899.090
  H     -400.252     208.991    -897.290
  H     -398.889     209.535    -900.000
  H     -405.775     210.260    -896.910
  H     -397.253     207.932    -899.490
  H     -404.687     208.940    -896.940
  H     -396.847     208.735    -896.840
  H     -395.541     209.574    -898.870
  H     -396.847     210.708    -899.190
  P     -397.152     206.017    -897.420
  C     -397.898     205.506    -894.930
  O     -397.049     206.198    -895.840
  O     -395.796     206.687    -897.970
  O     -397.260     204.585    -897.840
  H     -395.339     206.087    -898.580
  H     -397.647     205.783    -893.927
  H     -397.767     204.451    -895.052
  H     -398.918     205.764    -895.127

 6  7  8  9  10  11  12  13  14  15  26  29  33  34 0
 6-311+G(2d,p)
 ****
 36  38  39  40  41 0
 6-311+G(2d,p)
 ****
 1  2  3  4  5  16  17  18  19  20  21  22  23  24  25 0
 3-21G
 ****
 27  28  30  31  32  35  37  42  43  44  45  46  47 0
 3-21G
 ****
 48  49 0
 3-21G
 ****


