%nproc=1
%NoSave
%Mem=1900MB
#P OB98/GEN NMR

erre ene a

0 1
  C      342.434      61.604     868.146
  O      342.025      62.426     869.243
  P      341.067      61.774     870.338
  C      338.988      62.207     868.845
  O      339.760      61.258     869.556
  C      337.506      61.888     868.950
  O      337.182      60.674     868.211
  C      337.026      61.616     870.374
  O      336.769      62.809     871.097
  C      335.716      60.869     870.110
  O      334.673      61.804     869.786
  C      336.079      60.025     868.876
  N      334.312      55.354     869.823
  C      333.667      56.483     869.311
  N      332.337      56.343     869.083
  N      334.248      57.619     869.049
  C      335.583      57.604     869.341
  C      336.344      56.572     869.838
  C      335.669      55.322     870.128
  O      336.189      54.310     870.629
  N      337.660      56.937     869.990
  C      337.703      58.191     869.586
  N      336.442      58.652     869.218
  O      340.529      63.031     871.173
  O      341.726      60.759     871.232
  H      334.945      62.268     868.965
  H      340.155      62.737     872.030
  H      333.822      54.512     870.006
  H      338.585      58.802     869.544
  H      335.247      59.970     868.163
  H      335.370      60.289     870.959
  H      331.807      55.509     869.313
  H      337.716      60.950     870.915
  H      331.812      57.152     868.772
  H      336.930      62.709     868.499
  H      339.295      62.203     867.790
  H      339.189      63.211     869.240
  P      337.172      62.810     872.660
  C      334.835      61.831     873.209
  O      336.231      61.720     873.339
  O      336.576      64.213     873.177
  O      338.646      62.689     872.901
  H      337.085      64.522     873.939
  H      334.367      60.888     873.491
  H      334.549      62.060     872.176
  H      334.464      62.632     873.867
  H      343.069      62.168     867.495
  H      341.571      61.275     867.605
  H      342.968      60.754     868.517

 3  4  5  6  7  8  9  10  11  12  23  26  30  31 0
 6-311+G(2d,p)
 ****
 33  35  36  37  38 0
 6-311+G(2d,p)
 ****
 1  2  13  14  15  16  17  18  19  20  21  22  24  25 0
 3-21G
 ****
 27  28  29  32  34  39  40  41  42  43  44  45  46  47  48  49 0
 3-21G
 ****


