%nproc=1
%NoSave
%Mem=1900MB
#P OB98/GEN NMR

erre ene a

0 1
  C      484.852     189.909      84.746
  O      484.254     188.863      85.482
  H      485.930     189.732      84.702
  H      484.673     190.873      85.229
  H      484.460     189.927      83.724
  P      482.683     188.946      85.788
  C      481.834     186.934      84.403
  O      482.116     187.450      85.697
  C      482.378     185.508      84.252
  O      483.825     185.574      84.089
  C      482.097     184.602      85.464
  O      481.989     183.256      84.980
  C      483.371     184.781      86.275
  O      483.487     183.800      87.272
  C      484.410     184.784      85.151
  N      485.694     185.316      85.580
  C      486.508     184.453      86.326
  O      486.115     183.317      86.593
  N      487.722     184.909      86.771
  C      488.068     186.139      86.555
  N      489.278     186.532      87.034
  C      487.213     187.105      85.822
  C      486.055     186.628      85.364
  O      481.921     189.955      84.998
  O      482.614     189.261      87.359
  H      484.265     183.974      87.846
  H      482.374     190.196      87.496
  H      487.541     188.122      85.684
  H      485.362     187.260      84.817
  H      484.571     183.772      84.761
  H      483.366     185.750      86.785
  H      481.190     184.887      86.006
  H      481.976     185.073      83.331
  H      489.822     185.842      87.539
  H      482.312     187.595      83.674
  H      489.643     187.469      86.940
  H      480.753     186.935      84.224
  P      481.542     182.033      85.910
  C      479.252     181.642      84.783
  O      480.528     181.094      85.094
  O      481.038     182.440      87.260
  O      482.853     181.121      86.057
  H      482.835     180.678      86.926
  H      478.676     180.921      84.242
  H      479.377     182.520      84.184
  H      478.743     181.897      85.689

 6  7  8  9  10  11  12  13  14  15  16  26  30  31  32  33  35 0
 6-311+G(2d,p)
 ****
 37  38 0
 6-311+G(2d,p)
 ****
 1  2  3  4  5  17  18  19  20  21  22  23  24  25 0
 3-21G
 ****
 27  28  29  34  36  39  40  41  42  43  44  45  46 0
 3-21G
 ****


