%nproc=1
%NoSave
%Mem=1900MB
#P OB98/GEN NMR

erre ene a

0 1
  C     -196.256      48.183     -88.842
  O     -195.084      48.199     -88.015
  P     -194.345      49.551     -87.560
  C     -194.731      49.078     -85.056
  O     -193.779      49.372     -86.068
  C     -194.169      48.110     -84.008
  O     -194.044      46.771     -84.578
  C     -192.788      48.502     -83.453
  O     -192.795      48.182     -82.059
  C     -191.860      47.579     -84.234
  O     -190.581      47.428     -83.646
  C     -192.715      46.308     -84.250
  N     -192.283      45.274     -85.185
  C     -191.661      44.133     -84.654
  O     -191.434      44.029     -83.451
  N     -191.288      43.132     -85.518
  C     -191.501      43.250     -86.790
  N     -191.115      42.215     -87.587
  C     -192.131      44.439     -87.394
  C     -192.493      45.398     -86.542
  O     -195.183      50.779     -87.733
  O     -193.025      49.643     -88.461
  H     -192.845      50.578     -88.676
  H     -190.134      46.683     -84.090
  H     -192.297      44.495     -88.457
  H     -192.992      46.293     -86.905
  H     -192.763      45.891     -83.240
  H     -191.720      47.990     -85.238
  H     -192.554      49.565     -83.568
  H     -194.898      48.034     -83.190
  H     -190.693      41.412     -87.132
  H     -195.608      48.622     -85.523
  H     -191.242      42.203     -88.586
  H     -195.048      50.014     -84.577
  P     -192.482      49.320     -80.979
  C     -194.790      49.188     -79.773
  O     -193.387      49.030     -79.687
  O     -193.226      50.593     -81.617
  O     -191.041      49.633     -80.743
  H     -192.795      51.409     -81.297
  H     -195.270      48.337     -79.286
  H     -195.141      49.245     -80.805
  H     -195.079      50.106     -79.247
  H     -196.562      47.171     -89.008
  H     -196.037      48.648     -89.781
  H     -197.044      48.718     -88.355

 3  4  5  6  7  8  9  10  11  12  13  24  27  28  29  30  32 0
 6-311+G(2d,p)
 ****
 34  35 0
 6-311+G(2d,p)
 ****
 1  2  14  15  16  17  18  19  20  21  22  23  25  26 0
 3-21G
 ****
 31  33  36  37  38  39  40  41  42  43  44  45  46 0
 3-21G
 ****


