%nproc=1
%NoSave
%Mem=1900MB
#P OB98/GEN NMR

erre ene a

0 1
  C      274.044    -403.146      92.570
  O      273.503    -404.370      93.031
  H      273.218    -402.488      92.279
  H      274.688    -403.300      91.702
  H      274.607    -402.657      93.373
  P      274.517    -405.592      93.276
  C      274.061    -406.788      91.029
  O      273.901    -406.828      92.445
  C      272.925    -407.537      90.325
  O      273.043    -408.952      90.561
  C      271.537    -407.161      90.834
  O      271.127    -405.850      90.499
  C      270.691    -408.346      90.390
  O      270.201    -408.233      89.059
  C      271.712    -409.515      90.477
  N      271.426    -410.412      91.590
  C      270.217    -411.098      91.524
  O      269.407    -410.952      90.602
  N      269.944    -411.921      92.576
  C      270.718    -412.091      93.688
  O      270.398    -412.819      94.621
  C      271.973    -411.319      93.717
  C      272.268    -410.531      92.683
  O      274.817    -405.916      94.707
  O      275.812    -405.193      92.422
  H      269.706    -409.052      88.867
  H      276.597    -405.724      92.698
  H      269.076    -412.440      92.536
  H      272.618    -411.427      94.590
  H      273.188    -409.949      92.677
  H      271.680    -410.106      89.554
  H      269.823    -408.488      91.043
  H      271.559    -407.190      91.933
  H      273.008    -407.363      89.244
  H      275.015    -407.276      90.784
  H      274.100    -405.748      90.693
  P      270.444    -404.850      91.537
  C      269.015    -403.960      89.552
  O      269.788    -403.635      90.700
  O      271.208    -404.535      92.787
  O      269.138    -405.695      91.971
  H      268.960    -405.494      92.914
  H      268.648    -403.061      89.103
  H      268.190    -404.578      89.841
  H      269.625    -404.486      88.848

 6  7  8  9  10  11  12  13  14  15  16  26  31  32  33  34  35 0
 6-311+G(2d,p)
 ****
 36  37 0
 6-311+G(2d,p)
 ****
 1  2  3  4  5  17  18  19  20  21  22  23  24  25 0
 3-21G
 ****
 27  28  29  30  38  39  40  41  42  43  44  45 0
 3-21G
 ****


