%nproc=1
%NoSave
%Mem=1900MB
#P OB98/GEN NMR

erre ene a

0 1
  C     -190.257      -3.114     113.710
  O     -191.511      -3.590     113.214
  P     -192.702      -2.518     113.100
  C     -193.322      -3.020     115.565
  O     -193.079      -2.025     114.582
  C     -194.407      -2.574     116.559
  O     -194.097      -1.261     117.109
  C     -195.806      -2.479     115.941
  O     -196.755      -2.835     116.953
  C     -195.947      -0.998     115.642
  O     -197.314      -0.622     115.484
  C     -195.231      -0.405     116.854
  N     -195.914       4.454     118.273
  C     -196.487       3.304     118.682
  N     -196.264       2.045     118.238
  C     -195.306       2.045     117.294
  C     -194.635       3.139     116.769
  C     -194.974       4.395     117.297
  N     -194.408       5.572     116.860
  N     -193.752       2.738     115.778
  C     -193.897       1.429     115.710
  N     -194.801       0.961     116.625
  O     -193.960      -3.411     112.671
  O     -192.443      -1.429     112.111
  H     -197.678      -1.114     114.716
  H     -194.187      -3.239     111.737
  H     -197.229       3.403     119.473
  H     -193.383       0.780     115.017
  H     -195.865      -0.401     117.754
  H     -195.413      -0.752     114.715
  H     -195.957      -3.101     115.055
  H     -194.421      -3.286     117.396
  H     -192.402      -3.237     116.115
  H     -194.723       6.436     117.271
  H     -193.743       5.548     116.103
  H     -193.603      -3.956     115.069
  P     -197.659      -4.130     116.663
  C     -199.567      -2.609     115.783
  O     -198.704      -3.700     115.529
  O     -198.562      -4.264     117.985
  O     -196.876      -5.375     116.393
  H     -198.841      -5.191     118.106
  H     -199.655      -2.009     114.871
  H     -199.200      -1.968     116.588
  H     -200.557      -2.991     116.053
  H     -189.555      -3.921     113.736
  H     -190.389      -2.724     114.697
  H     -189.889      -2.342     113.067

 3  4  5  6  7  8  9  10  11  12  22  25  29  30  31  32 0
 6-311+G(2d,p)
 ****
 33  36  37 0
 6-311+G(2d,p)
 ****
 1  2  13  14  15  16  17  18  19  20  21  23  24  26 0
 3-21G
 ****
 27  28  34  35  38  39  40  41  42  43  44  45  46  47  48 0
 3-21G
 ****


