%nproc=1
%NoSave
%Mem=1900MB
#P OB98/GEN NMR

erre ene a

0 1
  C      -34.787     -35.166     -53.592
  O      -35.728     -36.189     -53.838
  H      -35.325     -34.247     -53.346
  H      -34.190     -34.988     -54.489
  H      -34.133     -35.423     -52.755
  P      -35.218     -37.705     -53.946
  C      -34.405     -39.215     -55.874
  O      -35.061     -38.008     -55.514
  C      -34.355     -39.352     -57.397
  O      -35.709     -39.611     -57.877
  C      -33.839     -38.086     -58.111
  O      -33.109     -38.485     -59.276
  C      -35.138     -37.418     -58.514
  O      -34.952     -36.489     -59.551
  C      -35.987     -38.629     -58.890
  N      -37.405     -38.288     -58.964
  C      -38.034     -38.480     -60.187
  O      -37.462     -38.906     -61.190
  N      -39.345     -38.096     -60.253
  C      -40.038     -37.450     -59.273
  O      -41.186     -37.057     -59.414
  C      -39.303     -37.224     -58.017
  C      -38.042     -37.652     -57.919
  O      -36.015     -38.717     -53.193
  O      -33.694     -37.645     -53.462
  H      -34.625     -36.942     -60.350
  H      -33.393     -38.528     -53.176
  H      -39.819     -38.240     -61.132
  H      -39.818     -36.700     -57.223
  H      -37.466     -37.487     -57.016
  H      -35.668     -39.047     -59.854
  H      -35.569     -36.886     -57.660
  H      -33.213     -37.459     -57.473
  H      -33.750     -40.228     -57.659
  H      -34.966     -40.051     -55.443
  H      -33.391     -39.216     -55.462
  P      -31.588     -38.035     -59.517
  C      -30.230     -36.054     -60.427
  O      -31.534     -36.578     -60.196
  O      -30.748     -39.058     -60.212
  O      -31.018     -37.773     -58.043
  H      -30.138     -38.190     -57.962
  H      -30.309     -35.087     -60.879
  H      -29.693     -36.710     -61.080
  H      -29.709     -35.971     -59.496

 6  7  8  9  10  11  12  13  14  15  16  26  31  32  33  34  35 0
 6-311+G(2d,p)
 ****
 36  37 0
 6-311+G(2d,p)
 ****
 1  2  3  4  5  17  18  19  20  21  22  23  24  25 0
 3-21G
 ****
 27  28  29  30  38  39  40  41  42  43  44  45 0
 3-21G
 ****


