%nproc=1
%NoSave
%Mem=1900MB
#P OB98/GEN NMR

erre ene a

0 1
  C      104.213     -28.530      12.702
  O      104.385     -29.375      11.582
  H      104.721     -28.977      13.560
  H      103.149     -28.437      12.932
  H      104.643     -27.542      12.514
  P      104.009     -28.761      10.147
  C      101.787     -30.103      10.173
  O      102.409     -28.835      10.025
  C      100.321     -30.023       9.762
  O       99.617     -29.070      10.587
  C      100.096     -29.588       8.317
  O      100.214     -30.682       7.417
  C       98.660     -29.096       8.391
  O       97.759     -30.225       8.407
  C       98.636     -28.389       9.754
  N       96.892     -23.746       8.697
  C       96.278     -24.976       8.559
  N       95.023     -24.967       8.061
  N       96.841     -26.112       8.875
  C       98.106     -25.970       9.338
  C       98.824     -24.808       9.513
  C       98.183     -23.559       9.175
  O       98.680     -22.441       9.289
  N      100.079     -25.059      10.004
  C      100.127     -26.373      10.104
  N       98.957     -26.973       9.709
  O      104.522     -29.892       9.135
  O      104.625     -27.438       9.840
  H       96.862     -29.871       8.547
  H      105.368     -29.604       8.742
  H       96.416     -22.902       8.429
  H      100.979     -26.936      10.461
  H       97.664     -28.479      10.252
  H       98.381     -28.480       7.534
  H       94.538     -24.130       7.776
  H      100.755     -28.757       8.035
  H       94.551     -25.857       7.955
  H       99.868     -31.007       9.943
  H      101.856     -30.414      11.221
  H      102.311     -30.832       9.547
  P      100.748     -30.389       5.933
  C       98.271     -30.318       5.168
  O       99.544     -29.689       5.131
  O      100.823     -31.853       5.293
  O      102.063     -29.693       5.856
  H      101.755     -32.105       5.145
  H       97.573     -29.744       4.595
  H       97.934     -30.381       6.181
  H       98.347     -31.302       4.756

 6  7  8  9  10  11  12  13  14  15  26  29  33  34 0
 6-311+G(2d,p)
 ****
 36  38  39  40  41 0
 6-311+G(2d,p)
 ****
 1  2  3  4  5  16  17  18  19  20  21  22  23  24  25 0
 3-21G
 ****
 27  28  30  31  32  35  37  42  43  44  45  46  47 0
 3-21G
 ****
 48  49 0
 3-21G
 ****


