%nproc=1
%NoSave
%Mem=1900MB
#P OB98/GEN NMR

erre ene a

0 1
  C       21.841      -5.851     -10.318
  O       23.186      -6.275     -10.223
  H       21.735      -4.839      -9.919
  H       21.546      -5.846     -11.371
  H       21.188      -6.538      -9.771
  P       23.827      -6.318      -8.752
  C       25.451      -4.361      -9.304
  O       24.384      -4.833      -8.494
  C       25.408      -2.837      -9.354
  O       24.221      -2.397     -10.051
  C       25.351      -2.178      -7.981
  O       26.628      -2.067      -7.377
  C       24.793      -0.814      -8.345
  O       25.830      -0.002      -8.924
  C       23.747      -1.181      -9.409
  N       18.740      -1.315     -10.466
  C       19.821      -1.102     -11.247
  N       21.122      -1.104     -10.893
  C       21.259      -1.369      -9.585
  C       20.252      -1.615      -8.666
  C       18.934      -1.575      -9.152
  N       17.828      -1.761      -8.353
  N       20.783      -1.826      -7.408
  C       22.086      -1.728      -7.573
  N       22.421      -1.420      -8.863
  O       25.166      -7.175      -8.945
  O       22.946      -6.844      -7.670
  H       26.568       0.017      -8.285
  H       25.519      -7.452      -8.079
  H       19.612      -0.899     -12.293
  H       22.823      -1.859      -6.791
  H       23.646      -0.413     -10.184
  H       24.405      -0.271      -7.479
  H       24.642      -2.689      -7.319
  H       26.278      -2.487      -9.924
  H       25.339      -4.766     -10.315
  H       16.927      -1.567      -8.762
  H       17.954      -1.808      -7.353
  H       26.403      -4.698      -8.884
  P       26.747      -2.445      -5.819
  C       26.626       0.113      -5.386
  O       26.183      -1.183      -5.003
  O       28.323      -2.382      -5.556
  O       26.163      -3.770      -5.456
  H       28.587      -3.030      -4.874
  H       26.168       0.847      -4.756
  H       26.353       0.297      -6.404
  H       27.690       0.170      -5.286

 6  7  8  9  10  11  12  13  14  15  25  28  32  33  34  35 0
 6-311+G(2d,p)
 ****
 36  39  40 0
 6-311+G(2d,p)
 ****
 1  2  3  4  5  16  17  18  19  20  21  22  23  24 0
 3-21G
 ****
 26  27  29  30  31  37  38  41  42  43  44  45  46  47 0
 3-21G
 ****
 48 0
 3-21G
 ****


