%nproc=1
%NoSave
%Mem=1900MB
#P OB98/GEN NMR

erre ene a

0 1
  C      515.677    -329.473     923.320
  O      517.092    -329.404     923.392
  H      515.351    -330.520     923.330
  H      515.248    -328.955     924.184
  H      515.327    -328.988     922.401
  P      517.916    -330.130     922.242
  C      518.181    -328.096     920.653
  O      517.595    -329.367     920.869
  C      519.389    -328.214     919.721
  O      518.915    -328.772     918.463
  C      520.103    -326.879     919.416
  O      521.476    -326.965     919.790
  C      520.009    -326.736     917.903
  O      521.211    -326.231     917.315
  C      519.700    -328.149     917.428
  N      520.240    -328.683     912.396
  C      521.006    -329.117     913.406
  N      520.755    -329.035     914.735
  C      519.560    -328.454     914.964
  C      518.660    -328.000     914.012
  C      519.060    -328.096     912.672
  N      518.298    -327.610     911.623
  N      517.525    -327.460     914.622
  C      517.767    -327.554     915.906
  N      518.990    -328.147     916.164
  O      517.168    -331.536     922.072
  O      519.371    -330.319     922.520
  H      521.928    -326.834     917.601
  H      517.831    -332.266     922.068
  H      521.946    -329.578     913.140
  H      517.129    -327.182     916.709
  H      520.621    -328.745     917.303
  H      519.180    -326.062     917.665
  H      519.631    -326.020     919.926
  H      520.083    -328.940     920.145
  H      518.522    -327.693     921.623
  H      518.694    -327.642     910.694
  H      517.464    -327.084     911.830
  H      517.423    -327.409     920.245
  P      521.967    -325.993     920.978
  C      522.387    -327.642     922.958
  O      521.521    -326.670     922.355
  O      520.965    -324.736     920.854
  O      523.394    -325.594     920.888
  H      521.403    -323.947     921.187
  H      521.947    -327.996     923.867
  H      523.334    -327.192     923.172
  H      522.526    -328.462     922.285

 6  7  8  9  10  11  12  13  14  15  25  28  32  33  34  35 0
 6-311+G(2d,p)
 ****
 36  39  40 0
 6-311+G(2d,p)
 ****
 1  2  3  4  5  16  17  18  19  20  21  22  23  24 0
 3-21G
 ****
 26  27  29  30  31  37  38  41  42  43  44  45  46  47  48 0
 3-21G
 ****


