%nproc=1
%NoSave
%Mem=1900MB
#P OB98/GEN NMR

erre ene a

0 1
  C       72.657     238.843      -3.576
  O       73.120     238.701      -2.251
  H       72.889     237.928      -4.129
  H       73.163     239.681      -4.061
  H       71.575     238.999      -3.592
  P       72.746     239.866      -1.209
  C       74.777     241.372      -1.802
  O       73.363     241.225      -1.800
  C       75.160     242.842      -1.607
  O       74.790     243.584      -2.796
  C       74.473     243.500      -0.404
  O       75.401     244.390       0.221
  C       73.348     244.306      -1.032
  O       72.944     245.411      -0.222
  C       73.960     244.691      -2.385
  N       72.927     244.989      -3.375
  C       73.329     245.712      -4.503
  O       74.501     246.073      -4.623
  N       72.387     246.057      -5.438
  C       71.138     245.784      -5.222
  N       70.249     246.181      -6.173
  C       70.661     245.085      -4.014
  C       71.599     244.712      -3.146
  O       73.687     239.553       0.047
  O       71.306     239.951      -0.836
  H       72.175     245.843      -0.653
  H       73.259     239.821       0.883
  H       69.603     244.902      -3.868
  H       71.342     244.199      -2.228
  H       74.611     245.569      -2.280
  H       72.473     243.661      -1.182
  H       74.103     242.781       0.331
  H       76.250     242.906      -1.515
  H       70.613     246.674      -6.980
  H       75.170     241.029      -2.762
  H       69.250     246.062      -6.091
  H       75.206     240.757      -1.003
  P       76.495     243.723       1.193
  C       74.796     243.991       3.140
  O       75.735     243.149       2.479
  O       77.300     244.985       1.756
  O       77.395     242.757       0.497
  H       78.194     245.014       1.362
  H       74.375     243.470       3.974
  H       74.017     244.261       2.458
  H       75.290     244.875       3.485

 6  7  8  9  10  11  12  13  14  15  16  26  30  31  32  33  35 0
 6-311+G(2d,p)
 ****
 37  38 0
 6-311+G(2d,p)
 ****
 1  2  3  4  5  17  18  19  20  21  22  23  24  25 0
 3-21G
 ****
 27  28  29  34  36  39  40  41  42  43  44  45  46 0
 3-21G
 ****


