%nproc=1
%NoSave
%Mem=1900MB
#P OB98/GEN NMR

erre ene a

0 1
  C      107.561    -891.370    -172.019
  O      107.406    -892.380    -172.990
  H      107.931    -890.470    -172.512
  H      108.281    -891.670    -171.252
  H      106.596    -891.140    -171.555
  P      106.984    -893.850    -172.496
  C      104.406    -893.660    -172.588
  O      105.567    -893.630    -171.773
  C      103.391    -894.650    -172.028
  O      103.940    -895.990    -171.984
  C      102.936    -894.370    -170.599
  O      102.039    -893.280    -170.492
  C      102.278    -895.700    -170.267
  O      100.991    -895.770    -170.901
  C      103.273    -896.700    -170.907
  N      104.245    -897.230    -169.955
  C      104.568    -898.590    -170.068
  O      104.055    -899.270    -170.939
  N      105.452    -899.130    -169.170
  C      105.950    -898.400    -168.226
  N      106.780    -899.000    -167.333
  C      105.650    -896.960    -168.072
  C      104.790    -896.450    -168.959
  O      108.005    -894.600    -171.696
  O      106.548    -894.610    -173.839
  H      100.646    -896.670    -170.746
  H      106.285    -895.530    -173.584
  H      106.081    -896.400    -167.267
  H      104.509    -895.400    -168.906
  H      102.734    -897.540    -171.356
  H      102.115    -895.840    -169.196
  H      103.799    -894.240    -169.937
  H      102.537    -894.690    -172.722
  H      106.934    -900.000    -167.442
  H      104.706    -893.930    -173.603
  H      106.980    -898.580    -166.432
  H      103.938    -892.670    -172.609
  P      101.854    -892.590    -169.053
  C      103.663    -890.710    -168.992
  O      103.297    -892.030    -168.615
  O      101.632    -893.850    -168.087
  O      100.758    -891.580    -168.954
  H      100.678    -894.030    -167.963
  H      104.645    -890.494    -168.626
  H      102.965    -890.014    -168.575
  H      103.654    -890.628    -170.059

 6  7  8  9  10  11  12  13  14  15  16  26  30  31  32  33  35 0
 6-311+G(2d,p)
 ****
 37  38 0
 6-311+G(2d,p)
 ****
 1  2  3  4  5  17  18  19  20  21  22  23  24  25 0
 3-21G
 ****
 27  28  29  34  36  39  40  41  42  43  44  45  46 0
 3-21G
 ****


