%nproc=1
%NoSave
%Mem=1900MB
#P OB98/GEN NMR

erre ene a

0 1
  C      335.671     246.706     -58.690
  O      336.896     246.358     -58.069
  P      337.681     247.497     -57.262
  C      339.672     247.634     -58.928
  O      339.248     247.353     -57.599
  C      340.651     246.562     -59.419
  O      341.885     246.638     -58.654
  C      340.119     245.127     -59.283
  O      340.618     244.328     -60.367
  C      340.775     244.628     -58.011
  O      340.848     243.204     -57.986
  C      342.129     245.335     -58.095
  N      343.790     242.769     -54.061
  C      343.430     242.301     -55.310
  N      343.431     240.956     -55.474
  N      343.107     243.079     -56.308
  C      343.141     244.396     -55.996
  C      343.494     244.983     -54.802
  C      343.838     244.109     -53.701
  O      344.143     244.458     -52.560
  N      343.444     246.352     -54.870
  C      343.022     246.599     -56.099
  N      342.785     245.447     -56.806
  O      337.584     246.993     -55.743
  O      337.117     248.870     -57.406
  H      341.311     242.931     -58.802
  H      336.929     247.536     -55.258
  H      344.020     242.130     -53.316
  H      342.843     247.585     -56.512
  H      342.816     244.806     -58.770
  H      340.203     244.965     -57.138
  H      343.602     240.303     -54.725
  H      339.024     245.053     -59.248
  H      343.127     240.587     -56.363
  H      340.913     246.781     -60.464
  H      340.167     248.605     -58.947
  H      338.800     247.678     -59.588
  P      339.547     243.380     -61.090
  C      340.642     241.069     -60.563
  O      340.355     242.065     -61.533
  O      339.259     244.132     -62.474
  O      338.301     243.147     -60.301
  H      338.376     243.896     -62.814
  H      340.135     240.147     -60.849
  H      340.319     241.366     -59.558
  H      341.723     240.894     -60.548
  H      335.267     245.849     -59.187
  H      335.842     247.485     -59.404
  H      334.979     247.047     -57.948

 3  4  5  6  7  8  9  10  11  12  23  26  30  31 0
 6-311+G(2d,p)
 ****
 33  35  36  37  38 0
 6-311+G(2d,p)
 ****
 1  2  13  14  15  16  17  18  19  20  21  22  24  25 0
 3-21G
 ****
 27  28  29  32  34  39  40  41  42  43  44  45  46  47  48  49 0
 3-21G
 ****


