%nproc=1
%NoSave
%Mem=1900MB
#P OB98/GEN NMR

erre ene a

0 1
  C      533.914     197.691    -424.761
  O      533.313     198.337    -423.659
  H      534.237     198.443    -425.484
  H      533.186     197.022    -425.239
  H      534.786     197.116    -424.430
  P      532.919     197.431    -422.399
  C      530.303     197.267    -422.187
  O      531.508     196.735    -422.741
  C      529.757     198.364    -423.093
  O      529.528     197.879    -424.429
  C      528.397     198.896    -422.667
  O      528.453     199.688    -421.500
  C      527.996     199.677    -423.915
  O      528.650     200.953    -423.962
  C      528.526     198.753    -425.033
  N      527.469     197.990    -425.681
  C      526.498     198.736    -426.365
  O      526.588     199.959    -426.417
  N      525.452     198.074    -426.958
  C      525.385     196.779    -426.896
  N      524.313     196.182    -427.494
  C      526.391     195.946    -426.212
  C      527.391     196.606    -425.618
  O      532.529     198.512    -421.291
  O      533.961     196.447    -421.970
  H      528.447     201.401    -423.119
  H      531.865     199.156    -421.584
  H      526.297     194.871    -426.180
  H      528.162     196.070    -425.091
  H      529.041     199.333    -425.810
  H      526.920     199.877    -423.948
  H      527.683     198.070    -422.555
  H      530.508     199.173    -423.148
  H      523.635     196.783    -427.934
  H      530.479     197.651    -421.179
  H      524.135     195.194    -427.477
  H      529.583     196.448    -422.116
  P      527.131     199.972    -420.639
  C      526.480     202.471    -420.611
  O      526.414     201.240    -421.332
  O      527.353     200.113    -419.165
  O      526.159     198.773    -421.041
  H      525.944     198.721    -421.996
  H      525.974     203.235    -421.163
  H      527.504     202.749    -420.473
  H      526.011     202.351    -419.657

 6  7  8  9  10  11  12  13  14  15  16  26  30  31  32  33  35 0
 6-311+G(2d,p)
 ****
 37  38 0
 6-311+G(2d,p)
 ****
 1  2  3  4  5  17  18  19  20  21  22  23  24  25 0
 3-21G
 ****
 27  28  29  34  36  39  40  41  42  43  44  45  46 0
 3-21G
 ****


