%nproc=1
%NoSave
%Mem=1900MB
#P OB98/GEN NMR

erre ene a

0 1
  C     -268.260    -821.609    -213.301
  O     -267.166    -821.281    -214.158
  P     -267.320    -820.031    -215.153
  C     -266.407    -818.140    -213.541
  O     -267.457    -818.686    -214.309
  C     -266.160    -816.689    -213.966
  O     -267.366    -815.906    -213.780
  C     -265.049    -816.002    -213.172
  O     -263.772    -816.229    -213.739
  C     -265.479    -814.547    -213.234
  O     -265.147    -813.975    -214.517
  C     -267.017    -814.671    -213.079
  N     -267.578    -814.735    -211.716
  C     -268.740    -814.030    -211.410
  O     -269.358    -813.327    -212.209
  N     -269.205    -814.159    -210.124
  C     -268.740    -815.031    -209.174
  O     -269.232    -815.138    -208.066
  C     -267.606    -815.854    -209.599
  C     -267.074    -815.673    -210.810
  O     -268.765    -820.228    -215.795
  O     -266.249    -819.943    -216.206
  H     -265.616    -814.500    -215.199
  H     -268.693    -820.394    -216.758
  H     -270.002    -813.592    -209.868
  H     -267.233    -816.590    -208.893
  H     -266.239    -816.282    -211.128
  H     -267.526    -813.849    -213.594
  H     -264.950    -813.943    -212.490
  H     -265.083    -816.318    -212.127
  H     -265.913    -816.678    -215.043
  H     -265.481    -818.724    -213.665
  H     -266.661    -818.188    -212.476
  P     -262.726    -817.171    -212.963
  C     -261.833    -818.010    -215.223
  O     -262.394    -818.374    -213.978
  O     -263.108    -817.570    -211.578
  O     -261.368    -816.310    -212.993
  H     -261.253    -815.808    -212.151
  H     -261.497    -818.917    -215.743
  H     -260.961    -817.349    -215.070
  H     -262.579    -817.502    -215.837
  H     -268.003    -822.459    -212.704
  H     -269.121    -821.836    -213.893
  H     -268.475    -820.777    -212.663

 3  4  5  6  7  8  9  10  11  12  13  23  28  29  30  31  32 0
 6-311+G(2d,p)
 ****
 33  34 0
 6-311+G(2d,p)
 ****
 1  2  14  15  16  17  18  19  20  21  22  24  25  26  27 0
 3-21G
 ****
 35  36  37  38  39  40  41  42  43  44  45 0
 3-21G
 ****


