%nproc=1
%NoSave
%Mem=1900MB
#P OB98/GEN NMR

erre ene a

0 1
  C     -107.444      58.457    -888.061
  O     -106.356      58.092    -887.230
  P     -106.261      58.787    -885.786
  C     -107.980      57.249    -884.581
  O     -106.621      57.647    -884.724
  C     -108.080      55.994    -883.705
  O     -107.409      54.889    -884.342
  C     -107.437      56.144    -882.340
  O     -108.278      56.883    -881.473
  C     -107.259      54.681    -881.935
  O     -108.449      54.175    -881.303
  C     -107.007      53.983    -883.289
  N     -105.632      53.540    -883.451
  C     -105.301      52.323    -882.859
  O     -106.161      51.684    -882.230
  N     -104.012      51.857    -882.963
  C     -103.127      52.564    -883.590
  N     -101.862      52.070    -883.668
  C     -103.423      53.880    -884.212
  C     -104.679      54.309    -884.097
  O     -107.556      59.738    -885.752
  O     -105.005      59.543    -885.537
  H     -108.417      54.501    -880.377
  H     -107.424      60.496    -885.159
  H     -102.643      54.434    -884.725
  H     -104.980      55.259    -884.524
  H     -107.657      53.102    -883.391
  H     -106.447      54.554    -881.223
  H     -106.457      56.624    -882.420
  H     -109.145      55.733    -883.602
  H     -101.689      51.170    -883.224
  H     -108.401      57.013    -885.564
  H     -101.103      52.527    -884.153
  H     -108.550      58.069    -884.142
  P     -107.778      57.087    -879.963
  C     -106.178      59.008    -880.543
  O     -107.366      58.635    -879.867
  O     -106.354      56.358    -879.968
  O     -108.678      56.575    -878.876
  H     -105.987      56.329    -879.062
  H     -106.100      60.100    -880.547
  H     -106.200      58.669    -881.583
  H     -105.316      58.587    -880.027
  H     -107.382      57.921    -888.985
  H     -107.407      59.509    -888.255
  H     -108.364      58.217    -887.570

 3  4  5  6  7  8  9  10  11  12  13  21  23  27  28  29  30  32 0
 6-311+G(2d,p)
 ****
 34  35 0
 6-311+G(2d,p)
 ****
 1  2  14  15  16  17  18  19  20  22  24  25  26 0
 3-21G
 ****
 31  33  36  37  38  39  40  41  42  43  44  45  46 0
 3-21G
 ****


