%nproc=1
%NoSave
%Mem=1900MB
#P OB98/GEN NMR

erre ene a

0 1
  C      124.166     122.792     132.255
  O      124.417     124.183     132.166
  P      123.322     125.171     132.799
  C      123.505     127.256     131.254
  O      123.847     126.655     132.500
  C      123.664     128.771     131.333
  O      122.812     129.303     132.363
  C      125.069     129.227     131.686
  O      125.918     129.141     130.559
  C      124.811     130.653     132.160
  O      124.805     131.571     131.054
  C      123.406     130.547     132.797
  N      123.442     130.643     134.247
  C      123.376     131.938     134.774
  O      123.312     132.910     134.019
  N      123.424     132.098     136.137
  C      123.534     131.057     136.902
  N      123.570     131.274     138.245
  C      123.626     129.677     136.385
  C      123.581     129.545     135.061
  O      123.547     125.003     134.372
  O      121.914     124.886     132.390
  H      124.232     131.163     130.374
  H      122.727     125.204     134.864
  H      123.717     128.843     137.066
  H      123.645     128.567     134.597
  H      122.757     131.348     132.420
  H      125.583     130.997     132.854
  H      125.471     128.631     132.513
  H      123.348     129.199     130.372
  H      123.511     132.231     138.568
  H      122.463     127.022     131.015
  H      123.631     130.529     138.924
  H      124.145     126.837     130.472
  P      126.688     127.759     130.311
  C      128.936     128.989     130.214
  O      128.020     128.166     129.519
  O      125.805     127.084     129.157
  O      126.864     126.856     131.485
  H      126.120     126.178     128.983
  H      129.857     129.061     129.630
  H      129.170     128.562     131.192
  H      128.517     129.993     130.336
  H      124.970     122.255     131.797
  H      123.250     122.562     131.752
  H      124.088     122.509     133.284

 3  4  5  6  7  8  9  10  11  12  13  21  23  27  28  29  30  32 0
 6-311+G(2d,p)
 ****
 34  35 0
 6-311+G(2d,p)
 ****
 1  2  14  15  16  17  18  19  20  22  24  25  26 0
 3-21G
 ****
 31  33  36  37  38  39  40  41  42  43  44  45  46 0
 3-21G
 ****


