%nproc=1
%NoSave
%Mem=1900MB
#P OB98/GEN NMR

erre ene a

0 1
  C      153.148     219.171     181.345
  O      154.555     219.167     181.523
  P      155.113     218.920     183.009
  C      154.382     216.432     182.849
  O      154.319     217.648     183.585
  C      154.884     215.280     183.722
  O      154.571     214.025     183.068
  C      156.390     215.310     183.991
  O      156.604     214.855     185.328
  C      156.943     214.281     183.025
  O      158.192     213.756     183.471
  C      155.792     213.263     182.981
  N      155.826     212.443     181.773
  C      156.974     211.677     181.563
  O      157.929     211.772     182.334
  N      157.033     210.863     180.458
  C      156.076     210.897     179.586
  N      156.180     210.070     178.510
  C      154.904     211.785     179.708
  C      154.833     212.508     180.824
  O      154.493     220.143     183.832
  O      156.600     218.861     183.113
  H      158.464     213.047     182.848
  H      155.092     220.417     184.551
  H      154.151     211.801     178.933
  H      153.998     213.168     181.011
  H      155.831     212.598     183.854
  H      157.091     214.736     182.038
  H      156.824     216.307     183.866
  H      154.329     215.300     184.667
  H      157.000     209.482     178.440
  H      155.077     216.556     182.015
  H      155.482     210.029     177.778
  H      153.394     216.205     182.439
  P      157.999     215.229     186.026
  C      156.939     217.441     186.781
  O      158.012     216.831     186.093
  O      159.035     214.949     184.834
  O      158.389     214.495     187.264
  H      159.947     215.081     185.155
  H      157.142     218.512     186.868
  H      156.835     217.020     187.784
  H      156.011     217.306     186.217
  H      152.919     219.345     180.314
  H      152.715     219.946     181.942
  H      152.748     218.225     181.644

 3  4  5  6  7  8  9  10  11  12  13  21  23  27  28  29  30  32 0
 6-311+G(2d,p)
 ****
 34  35 0
 6-311+G(2d,p)
 ****
 1  2  14  15  16  17  18  19  20  22  24  25  26 0
 3-21G
 ****
 31  33  36  37  38  39  40  41  42  43  44  45  46 0
 3-21G
 ****


