%nproc=1
%NoSave
%Mem=1900MB
#P OB98/GEN NMR

erre ene a

0 1
  C     -254.683     127.468     583.309
  O     -255.733     126.621     583.747
  P     -255.577     125.034     583.866
  C     -257.492     125.142     585.631
  O     -256.931     124.451     584.519
  C     -258.533     124.315     586.390
  O     -257.874     123.213     587.058
  C     -259.182     125.161     587.489
  O     -260.260     126.025     587.175
  C     -259.444     124.187     588.632
  O     -260.796     123.724     588.660
  C     -258.482     123.034     588.350
  N     -257.370     122.594     593.277
  C     -258.584     122.427     592.643
  N     -259.661     122.316     593.454
  N     -258.729     122.394     591.342
  C     -257.565     122.619     590.670
  C     -256.309     122.783     591.188
  C     -256.159     122.774     592.628
  O     -255.111     123.003     593.230
  N     -255.381     123.060     590.210
  C     -256.087     123.105     589.101
  N     -257.430     122.888     589.337
  O     -254.264     124.521     584.355
  O     -255.722     124.588     582.319
  H     -260.853     122.982     589.287
  H     -255.151     123.810     582.187
  H     -257.336     122.689     594.283
  H     -255.699     123.323     588.114
  H     -259.025     122.082     588.314
  H     -259.274     124.678     589.595
  H     -259.610     122.483     594.442
  H     -258.407     125.833     587.868
  H     -260.582     122.360     593.022
  H     -259.253     123.854     585.701
  H     -257.931     126.070     585.254
  H     -256.683     125.422     586.317
  P     -260.542     127.460     587.821
  C     -262.167     127.702     585.867
  O     -261.921     128.016     587.220
  O     -259.442     128.418     587.166
  O     -260.443     127.508     589.315
  H     -259.304     129.197     587.731
  H     -262.944     128.371     585.475
  H     -262.517     126.667     585.787
  H     -261.261     127.818     585.257
  H     -255.020     128.484     583.311
  H     -254.391     127.191     582.317
  H     -253.846     127.368     583.968

 3  4  5  6  7  8  9  10  11  12  23  26  30  31 0
 6-311+G(2d,p)
 ****
 33  35  36  37  38 0
 6-311+G(2d,p)
 ****
 1  2  13  14  15  16  17  18  19  20  21  22  24  25 0
 3-21G
 ****
 27  28  29  32  34  39  40  41  42  43  44  45  46  47  48  49 0
 3-21G
 ****


