%nproc=1
%NoSave
%Mem=1900MB
#P OB98/GEN NMR

erre ene a

0 1
  C      301.165    -479.683      78.557
  O      301.132    -478.443      77.838
  P      301.506    -478.468      76.277
  C      302.668    -476.161      75.947
  O      301.514    -476.959      75.728
  C      302.265    -474.766      76.445
  O      302.155    -474.720      77.881
  C      303.267    -473.677      76.084
  O      303.080    -473.219      74.755
  C      302.893    -472.590      77.075
  O      301.731    -471.879      76.602
  C      302.539    -473.398      78.329
  N      304.644    -471.510      82.603
  C      303.554    -471.137      81.893
  N      303.069    -471.679      80.751
  C      303.821    -472.724      80.364
  C      304.956    -473.214      80.987
  C      305.367    -472.561      82.158
  N      306.479    -472.946      82.880
  N      305.469    -474.292      80.292
  C      304.648    -474.456      79.272
  N      303.637    -473.522      79.273
  O      300.201    -479.098      75.601
  O      302.726    -479.267      75.961
  H      301.507    -471.213      77.284
  H      300.456    -479.640      74.834
  H      303.000    -470.293      82.290
  H      304.730    -475.221      78.518
  H      301.689    -472.977      78.875
  H      303.684    -471.850      77.210
  H      304.299    -474.014      76.268
  H      301.287    -474.524      76.014
  H      303.248    -476.075      75.029
  H      306.695    -472.447      83.727
  H      307.011    -473.746      82.566
  H      303.314    -476.665      76.675
  P      304.392    -473.040      73.845
  C      303.561    -470.796      72.828
  O      303.943    -472.138      72.604
  O      304.597    -474.495      73.218
  O      305.600    -472.574      74.592
  H      305.545    -474.656      73.056
  H      303.579    -470.254      71.877
  H      304.248    -470.303      73.529
  H      302.540    -470.758      73.233
  H      300.895    -479.511      79.578
  H      302.152    -480.094      78.514
  H      300.473    -480.370      78.116

 3  4  5  6  7  8  9  10  11  12  22  25  29  30  31  32 0
 6-311+G(2d,p)
 ****
 33  36  37 0
 6-311+G(2d,p)
 ****
 1  2  13  14  15  16  17  18  19  20  21  23  24  26 0
 3-21G
 ****
 27  28  34  35  38  39  40  41  42  43  44  45  46  47  48 0
 3-21G
 ****


