%nproc=1
%NoSave
%Mem=1900MB
#P OB98/GEN NMR

erre ene a

0 1
  C      693.333    -685.521    -385.899
  O      691.935    -685.646    -385.644
  P      691.413    -685.410    -384.138
  C      692.289    -683.530    -382.604
  O      691.564    -683.851    -383.791
  C      692.287    -682.013    -382.352
  O      692.899    -681.338    -383.490
  C      690.887    -681.395    -382.202
  O      690.314    -681.328    -380.908
  C      691.159    -679.934    -382.616
  O      691.688    -679.206    -381.495
  C      692.250    -680.064    -383.684
  N      690.576    -676.907    -387.362
  C      691.046    -676.682    -386.122
  N      691.469    -677.579    -385.210
  C      691.381    -678.828    -385.687
  C      690.933    -679.217    -386.939
  C      690.498    -678.197    -387.800
  N      690.029    -678.423    -389.069
  N      690.992    -680.589    -387.068
  C      691.459    -681.019    -385.909
  N      691.726    -679.992    -385.046
  O      691.934    -686.349    -383.113
  O      689.832    -685.562    -384.306
  H      692.022    -678.360    -381.852
  H      689.474    -686.014    -383.519
  H      691.084    -675.631    -385.818
  H      691.607    -682.066    -385.659
  H      693.015    -679.299    -383.597
  H      690.264    -679.417    -382.946
  H      690.182    -681.838    -382.911
  H      692.890    -681.794    -381.462
  H      693.319    -683.884    -382.701
  H      689.700    -677.639    -389.602
  H      689.901    -679.386    -389.382
  H      691.844    -684.095    -381.784
  P      689.265    -682.455    -380.413
  C      689.366    -685.075    -380.324
  O      690.037    -683.851    -380.552
  O      687.925    -682.411    -381.086
  O      689.217    -682.220    -378.839
  H      690.036    -682.447    -378.371
  H      689.999    -685.894    -380.675
  H      688.413    -685.097    -380.883
  H      689.162    -685.204    -379.250
  H      693.524    -685.705    -386.936
  H      693.869    -686.232    -385.306
  H      693.655    -684.532    -385.647

 3  4  5  6  7  8  9  10  11  12  22  25  29  30  31  32 0
 6-311+G(2d,p)
 ****
 33  36  37 0
 6-311+G(2d,p)
 ****
 1  2  13  14  15  16  17  18  19  20  21  23  24  26 0
 3-21G
 ****
 27  28  34  35  38  39  40  41  42  43  44  45  46  47  48 0
 3-21G
 ****


