%nproc=1
%NoSave
%Mem=1900MB
#P OB98/GEN NMR

erre ene a

0 1
  C       -7.546     -25.376     -26.642
  O       -7.072     -24.300     -27.424
  H       -8.632     -25.431     -26.746
  H       -7.304     -25.224     -25.587
  H       -7.115     -26.318     -26.992
  P       -5.510     -23.934     -27.349
  C       -6.183     -21.948     -25.828
  O       -5.366     -23.097     -25.983
  C       -5.979     -21.338     -24.443
  O       -6.405     -22.247     -23.408
  C       -4.530     -21.007     -24.096
  O       -4.038     -19.858     -24.763
  C       -4.660     -20.799     -22.596
  O       -5.259     -19.516     -22.339
  C       -5.626     -21.947     -22.216
  N       -4.932     -23.144     -21.744
  C       -5.228     -23.569     -20.443
  O       -6.034     -22.949     -19.751
  N       -4.573     -24.667     -19.940
  C       -3.688     -25.276     -20.664
  N       -3.034     -26.330     -20.101
  C       -3.358     -24.874     -22.045
  C       -4.005     -23.810     -22.516
  O       -4.925     -23.285     -28.561
  O       -4.798     -25.312     -26.958
  H       -4.631     -18.841     -22.651
  H       -3.825     -25.141     -26.911
  H       -2.606     -25.411     -22.603
  H       -3.805     -23.443     -23.516
  H       -6.333     -21.621     -21.444
  H       -3.700     -20.821     -22.072
  H       -3.880     -21.870     -24.274
  H       -6.621     -20.450     -24.375
  H       -3.255     -26.550     -19.140
  H       -7.225     -22.247     -25.975
  H       -2.158     -26.670     -20.482
  H       -5.921     -21.195     -26.578
  P       -2.482     -19.830     -25.164
  C       -2.046     -18.601     -22.908
  O       -1.660     -19.634     -23.800
  O       -2.330     -18.421     -25.903
  O       -2.009     -20.974     -26.003
  H       -2.428     -18.519     -26.870
  H       -1.401     -18.607     -22.055
  H       -3.056     -18.761     -22.592
  H       -1.973     -17.656     -23.404

 6  7  8  9  10  11  12  13  14  15  16  26  30  31  32  33  35 0
 6-311+G(2d,p)
 ****
 37  38 0
 6-311+G(2d,p)
 ****
 1  2  3  4  5  17  18  19  20  21  22  23  24  25 0
 3-21G
 ****
 27  28  29  34  36  39  40  41  42  43  44  45  46 0
 3-21G
 ****


