%nproc=1
%NoSave
%Mem=1900MB
#P OB98/GEN NMR

erre ene a

0 1
  C      242.701     324.212    -223.019
  O      242.332     324.049    -221.663
  H      241.984     324.884    -223.498
  H      242.671     323.249    -223.534
  H      243.701     324.651    -223.098
  P      243.277     323.182    -220.702
  C      244.551     324.931    -219.312
  O      243.458     324.028    -219.346
  C      244.393     325.924    -218.163
  O      243.431     326.942    -218.555
  C      243.902     325.286    -216.861
  O      244.556     325.921    -215.764
  C      242.421     325.629    -216.838
  O      241.895     325.672    -215.511
  C      242.401     326.983    -217.545
  N      237.665     328.455    -216.576
  C      238.761     328.363    -215.735
  N      238.561     328.688    -214.443
  N      239.949     327.982    -216.134
  C      240.004     327.700    -217.465
  C      238.995     327.751    -218.393
  C      237.680     328.156    -217.936
  O      236.669     328.239    -218.629
  N      239.438     327.357    -219.631
  C      240.718     327.079    -219.448
  N      241.105     327.256    -218.146
  O      244.563     322.718    -221.314
  O      242.355     321.957    -220.250
  H      241.972     324.764    -215.144
  H      242.564     321.158    -220.770
  H      236.771     328.740    -216.218
  H      241.400     326.733    -220.217
  H      242.619     327.814    -216.862
  H      241.860     324.880    -217.408
  H      237.680     329.003    -214.070
  H      244.074     324.204    -216.821
  H      239.359     328.655    -213.814
  H      245.353     326.437    -218.013
  H      244.583     325.472    -220.265
  H      245.487     324.366    -219.195
  P      244.543     325.205    -214.331
  C      246.981     324.373    -214.281
  O      246.025     325.267    -213.722
  O      243.895     323.859    -214.289
  O      243.749     326.254    -213.416
  H      243.276     325.768    -212.715
  H      247.924     324.510    -213.794
  H      247.087     324.572    -215.327
  H      246.651     323.365    -214.142

 6  7  8  9  10  11  12  13  14  15  26  29  33  34 0
 6-311+G(2d,p)
 ****
 36  38  39  40  41 0
 6-311+G(2d,p)
 ****
 1  2  3  4  5  16  17  18  19  20  21  22  23  24  25 0
 3-21G
 ****
 27  28  30  31  32  35  37  42  43  44  45  46  47 0
 3-21G
 ****
 48  49 0
 3-21G
 ****


