%nproc=1
%NoSave
%Mem=1900MB
#P OB98/GEN NMR

erre ene a

0 1
  C      168.332      -5.696     202.174
  O      169.497      -4.907     202.008
  P      170.477      -4.625     203.240
  C      171.898      -6.686     202.679
  O      171.122      -6.034     203.676
  C      173.282      -7.061     203.208
  O      173.132      -7.932     204.366
  C      174.178      -7.796     202.198
  O      175.524      -7.387     202.463
  C      174.004      -9.255     202.595
  O      175.063     -10.086     202.136
  C      173.918      -9.114     204.112
  N      174.505     -14.038     205.381
  C      175.304     -13.185     204.701
  N      175.063     -11.892     204.380
  C      173.862     -11.505     204.842
  C      172.930     -12.272     205.526
  C      173.300     -13.600     205.810
  N      172.517     -14.474     206.536
  N      171.786     -11.531     205.778
  C      172.030     -10.344     205.258
  N      173.292     -10.262     204.743
  O      169.882      -3.837     204.360
  O      171.714      -3.850     202.581
  H      174.856     -11.008     202.379
  H      171.676      -2.902     202.818
  H      176.263     -13.584     204.376
  H      171.333      -9.515     205.225
  H      174.903      -8.972     204.570
  H      173.065      -9.637     202.178
  H      173.916      -7.609     201.152
  H      173.773      -6.144     203.558
  H      172.007      -5.999     201.836
  H      172.933     -15.354     206.797
  H      171.742     -14.103     207.086
  H      171.373      -7.582     202.330
  P      176.561      -7.211     201.249
  C      175.751      -4.842     200.710
  O      175.900      -6.170     200.233
  O      177.052      -8.485     200.644
  O      177.761      -6.366     201.906
  H      178.558      -6.447     201.348
  H      174.854      -4.783     201.339
  H      175.632      -4.166     199.857
  H      176.621      -4.532     201.292
  H      167.813      -5.767     201.241
  H      167.694      -5.241     202.903
  H      168.609      -6.676     202.504

 3  4  5  6  7  8  9  10  11  12  22  25  29  30  31  32 0
 6-311+G(2d,p)
 ****
 33  36  37 0
 6-311+G(2d,p)
 ****
 1  2  13  14  15  16  17  18  19  20  21  23  24  26 0
 3-21G
 ****
 27  28  34  35  38  39  40  41  42  43  44  45  46  47  48 0
 3-21G
 ****


