%nproc=1
%NoSave
%Mem=1900MB
#P OB98/GEN NMR

erre ene a

0 1
  C      119.976     372.176     161.448
  O      118.628     371.682     161.456
  P      117.427     372.499     162.144
  C      116.494     372.905     164.513
  O      117.573     372.387     163.740
  C      116.313     372.136     165.829
  O      115.764     370.824     165.582
  C      117.607     371.905     166.610
  O      117.975     373.082     167.315
  C      117.214     370.725     167.493
  O      116.474     371.174     168.637
  C      116.314     369.914     166.549
  N      118.040     365.124     167.058
  C      117.341     365.927     167.893
  N      116.922     367.196     167.692
  C      117.275     367.614     166.458
  C      117.991     366.909     165.501
  C      118.386     365.604     165.839
  N      119.107     364.793     164.994
  N      118.180     367.678     164.373
  C      117.578     368.819     164.636
  N      117.014     368.827     165.883
  O      116.069     372.140     161.632
  O      117.762     374.038     161.847
  H      116.196     370.384     169.134
  H      116.930     374.553     161.820
  H      117.091     365.493     168.858
  H      117.516     369.665     163.958
  H      115.463     369.476     167.087
  H      118.084     370.169     167.862
  H      118.410     371.605     165.928
  H      115.592     372.685     166.441
  H      115.575     372.834     163.916
  H      119.376     363.879     165.326
  H      119.406     365.161     164.101
  H      116.696     373.962     164.726
  P      119.325     373.860     166.927
  C      121.801     373.716     167.574
  O      120.482     373.307     167.889
  O      119.211     375.344     166.851
  O      119.726     373.240     165.502
  H      120.207     373.904     164.983
  H      122.191     373.101     166.760
  H      122.433     373.568     168.459
  H      121.829     374.769     167.293
  H      120.609     371.478     160.941
  H      120.317     372.300     162.455
  H      120.007     373.119     160.943

 3  4  5  6  7  8  9  10  11  12  22  25  29  30  31  32 0
 6-311+G(2d,p)
 ****
 33  36  37 0
 6-311+G(2d,p)
 ****
 1  2  13  14  15  16  17  18  19  20  21  23  24  26 0
 3-21G
 ****
 27  28  34  35  38  39  40  41  42  43  44  45  46  47  48 0
 3-21G
 ****


