%nproc=1
%NoSave
%Mem=1900MB
#P OB98/GEN NMR

erre ene a

0 1
  C      312.178    -688.709    -775.453
  O      311.347    -688.079    -774.497
  P      309.835    -687.752    -774.925
  C      309.200    -688.938    -772.691
  O      308.904    -687.892    -773.618
  C      308.492    -688.699    -771.359
  O      309.126    -687.565    -770.669
  C      306.990    -688.369    -771.500
  O      306.299    -688.919    -770.358
  C      306.951    -686.865    -771.376
  O      305.659    -686.410    -770.944
  C      308.077    -686.614    -770.362
  N      307.365    -681.851    -768.843
  C      306.808    -683.025    -768.359
  N      305.867    -682.864    -767.398
  N      307.152    -684.197    -768.767
  C      308.099    -684.191    -769.736
  C      308.745    -683.098    -770.281
  C      308.362    -681.786    -769.815
  O      308.811    -680.710    -770.221
  N      309.682    -683.476    -771.214
  C      309.563    -684.792    -771.291
  N      308.601    -685.253    -770.412
  O      309.413    -689.031    -775.810
  O      309.677    -686.474    -775.690
  H      305.010    -686.839    -771.524
  H      309.413    -688.775    -776.767
  H      307.082    -680.959    -768.489
  H      310.146    -685.445    -771.927
  H      307.742    -686.793    -769.344
  H      307.167    -686.423    -772.332
  H      305.519    -681.969    -767.079
  H      306.536    -688.743    -772.424
  H      305.400    -683.710    -767.064
  H      308.658    -689.576    -770.726
  H      310.266    -688.984    -772.535
  H      308.875    -689.901    -773.119
  P      304.976    -689.808    -770.702
  C      304.281    -691.038    -768.520
  O      304.147    -689.894    -769.351
  O      305.580    -691.276    -770.899
  O      304.238    -689.327    -771.908
  H      304.997    -691.796    -771.471
  H      304.703    -690.750    -767.563
  H      304.890    -691.824    -768.982
  H      303.265    -691.466    -768.373
  H      313.150    -688.865    -775.033
  H      312.259    -688.087    -776.320
  H      311.753    -689.652    -775.729

 3  4  5  6  7  8  9  10  11  12  23  26  30  31 0
 6-311+G(2d,p)
 ****
 33  35  36  37  38 0
 6-311+G(2d,p)
 ****
 1  2  13  14  15  16  17  18  19  20  21  22  24  25 0
 3-21G
 ****
 27  28  29  32  34  39  40  41  42  43  44  45  46  47  48  49 0
 3-21G
 ****


