%nproc=1
%NoSave
%Mem=1900MB
#P OB98/GEN NMR

erre ene a

0 1
  C      -14.399     -63.434     132.440
  O      -13.674     -62.584     131.575
  P      -14.120     -62.357     130.052
  C      -13.344     -59.907     129.969
  O      -13.141     -61.222     129.476
  C      -12.019     -59.157     130.119
  O      -11.293     -59.677     131.266
  C      -11.091     -59.252     128.901
  O      -10.395     -58.004     128.829
  C      -10.144     -60.367     129.299
  O       -8.938     -60.358     128.546
  C       -9.991     -60.093     130.801
  N       -9.495     -61.260     131.522
  C       -8.120     -61.495     131.464
  O       -7.396     -60.782     130.766
  N       -7.600     -62.562     132.153
  C       -8.401     -63.382     132.758
  N       -7.830     -64.419     133.428
  C       -9.869     -63.241     132.738
  C      -10.343     -62.162     132.121
  O      -15.574     -62.096     129.848
  O      -13.598     -63.672     129.307
  H       -8.597     -59.438     128.521
  H      -14.202     -64.436     129.491
  H      -10.498     -63.981     133.208
  H      -11.404     -61.972     132.054
  H       -9.299     -59.259     130.973
  H      -10.629     -61.338     129.138
  H      -11.615     -59.459     127.965
  H      -12.250     -58.106     130.331
  H       -6.819     -64.470     133.430
  H      -13.816     -59.984     130.953
  H       -8.355     -65.064     133.998
  H      -14.029     -59.362     129.312
  P      -10.524     -57.051     127.547
  C       -9.303     -55.080     128.627
  O       -9.285     -56.040     127.588
  O      -11.858     -56.403     127.373
  O      -10.175     -58.006     126.306
  H      -10.472     -57.584     125.480
  H       -8.305     -54.646     128.729
  H       -9.590     -55.537     129.579
  H      -10.012     -54.286     128.380
  H      -13.934     -63.443     133.404
  H      -14.409     -64.426     132.040
  H      -15.403     -63.077     132.532

 3  4  5  6  7  8  9  10  11  12  13  23  27  28  29  30  32 0
 6-311+G(2d,p)
 ****
 34  35 0
 6-311+G(2d,p)
 ****
 1  2  14  15  16  17  18  19  20  21  22  24  25  26 0
 3-21G
 ****
 31  33  36  37  38  39  40  41  42  43  44  45  46 0
 3-21G
 ****


