%nproc=1
%NoSave
%Mem=1900MB
#P OB98/GEN NMR

erre ene a

0 1
  C      -67.046      40.305     329.814
  O      -68.285      39.627     329.791
  H      -66.318      39.680     330.335
  H      -67.140      41.254     330.350
  H      -66.686      40.484     328.797
  P      -69.535      40.341     329.078
  C      -71.337      41.006     330.819
  O      -70.104      41.347     330.198
  C      -71.091      40.071     331.999
  O      -70.088      40.605     332.895
  C      -72.305      39.831     332.891
  O      -73.281      38.982     332.313
  C      -71.626      39.195     334.092
  O      -71.281      37.832     333.785
  C      -70.367      40.080     334.222
  N      -70.538      41.171     335.180
  C      -69.580      41.271     336.199
  O      -68.656      40.466     336.268
  N      -69.716      42.267     337.139
  C      -70.730      43.074     337.083
  N      -70.815      44.039     338.046
  C      -71.774      42.992     336.043
  C      -71.616      42.031     335.134
  O      -70.545      39.427     328.459
  O      -68.874      41.361     328.035
  H      -70.930      37.826     332.874
  H      -69.607      41.822     327.560
  H      -72.616      43.671     336.059
  H      -72.344      41.904     334.338
  H      -69.498      39.479     334.523
  H      -72.256      39.174     334.983
  H      -72.751      40.784     333.208
  H      -70.696      39.129     331.598
  H      -70.086      44.068     338.748
  H      -71.978      40.532     330.070
  H      -71.608      44.660     338.123
  H      -71.827      41.906     331.191
  P      -74.694      38.871     333.079
  C      -74.936      36.535     334.233
  O      -74.452      37.870     334.308
  O      -75.591      38.029     332.058
  O      -75.323      40.176     333.458
  H      -76.170      38.619     331.536
  H      -74.687      36.014     335.134
  H      -74.486      36.039     333.398
  H      -75.999      36.547     334.110

 6  7  8  9  10  11  12  13  14  15  16  26  30  31  32  33  35 0
 6-311+G(2d,p)
 ****
 37  38 0
 6-311+G(2d,p)
 ****
 1  2  3  4  5  17  18  19  20  21  22  23  24  25 0
 3-21G
 ****
 27  28  29  34  36  39  40  41  42  43  44  45  46 0
 3-21G
 ****


