%nproc=1
%NoSave
%Mem=1900MB
#P OB98/GEN NMR

erre ene a

0 1
  C     -213.172     256.144     -92.684
  O     -213.810     255.072     -91.980
  P     -212.896     253.820     -91.562
  C     -213.714     252.180     -93.435
  O     -213.695     252.521     -92.055
  C     -214.411     250.833     -93.631
  O     -213.742     249.799     -92.869
  C     -215.858     250.808     -93.166
  O     -216.707     251.495     -94.071
  C     -216.102     249.306     -93.069
  O     -216.383     248.763     -94.369
  C     -214.738     248.792     -92.565
  N     -214.742     248.458     -91.146
  C     -215.179     247.175     -90.828
  O     -215.568     246.369     -91.671
  N     -215.177     246.860     -89.496
  C     -214.815     247.690     -88.476
  O     -214.823     247.344     -87.300
  C     -214.409     249.048     -88.870
  C     -214.391     249.367     -90.168
  O     -213.079     253.822     -89.974
  O     -211.489     253.940     -92.039
  H     -213.969     254.094     -89.694
  H     -216.619     247.822     -94.230
  H     -215.478     245.930     -89.244
  H     -214.140     249.740     -88.084
  H     -214.097     250.364     -90.478
  H     -214.444     247.895     -93.123
  H     -216.952     249.061     -92.422
  H     -215.937     251.260     -92.169
  H     -214.350     250.571     -94.696
  H     -212.691     252.115     -93.816
  H     -214.225     252.973     -93.987
  P     -217.155     252.984     -93.658
  C     -219.303     252.100     -92.456
  O     -218.742     252.935     -93.446
  O     -216.970     253.759     -95.046
  O     -216.369     253.553     -92.522
  H     -217.316     253.263     -95.805
  H     -220.313     252.454     -92.231
  H     -218.713     252.117     -91.538
  H     -219.366     251.074     -92.833
  H     -213.891     256.907     -92.899
  H     -212.760     255.774     -93.599
  H     -212.389     256.552     -92.079

 3  4  5  6  7  8  9  10  11  12  13  24  28  29  30  31  32 0
 6-311+G(2d,p)
 ****
 33  34 0
 6-311+G(2d,p)
 ****
 1  2  14  15  16  17  18  19  20  21  22  23  25  26  27 0
 3-21G
 ****
 35  36  37  38  39  40  41  42  43  44  45 0
 3-21G
 ****


