%nproc=1
%NoSave
%Mem=1900MB
#P OB98/GEN NMR

erre ene a

0 1
  C     1316.798    -402.131     549.762
  O     1316.315    -403.209     548.968
  P     1317.374    -404.052     548.114
  C     1318.141    -405.380     550.186
  O     1318.546    -404.547     549.100
  C     1318.412    -406.867     549.856
  O     1319.843    -407.074     549.689
  C     1317.971    -407.862     550.937
  O     1316.638    -408.361     550.887
  C     1318.893    -409.044     550.662
  O     1318.334    -409.863     549.588
  C     1320.174    -408.381     550.169
  N     1323.491    -411.069     553.026
  C     1322.609    -411.442     552.061
  N     1321.774    -410.668     551.351
  C     1321.888    -409.378     551.712
  C     1322.741    -408.857     552.676
  C     1323.565    -409.759     553.357
  N     1324.453    -409.396     554.339
  N     1322.592    -407.476     552.774
  C     1321.636    -407.185     551.898
  N     1321.201    -408.305     551.216
  O     1317.826    -403.423     546.833
  O     1316.565    -405.416     547.830
  H     1318.971    -410.588     549.439
  H     1316.809    -405.723     546.914
  H     1322.600    -412.519     551.827
  H     1321.229    -406.213     551.734
  H     1320.638    -408.918     549.337
  H     1319.004    -409.720     551.527
  H     1318.168    -407.454     551.937
  H     1317.922    -407.108     548.908
  H     1317.079    -405.232     550.401
  H     1324.986    -410.102     554.814
  H     1324.474    -408.425     554.650
  H     1318.702    -405.053     551.089
  P     1315.751    -408.536     552.240
  C     1314.891    -406.067     552.303
  O     1315.677    -407.085     552.907
  O     1316.224    -409.608     553.159
  O     1314.273    -408.743     551.653
  H     1313.888    -407.964     551.233
  H     1314.798    -405.216     552.990
  H     1313.893    -406.428     552.064
  H     1315.370    -405.686     551.378
  H     1315.979    -401.667     550.270
  H     1317.280    -401.412     549.133
  H     1317.499    -402.503     550.480

 3  4  5  6  7  8  9  10  11  12  22  25  29  30  31  32 0
 6-311+G(2d,p)
 ****
 33  36  37 0
 6-311+G(2d,p)
 ****
 1  2  13  14  15  16  17  18  19  20  21  23  24  26 0
 3-21G
 ****
 27  28  34  35  38  39  40  41  42  43  44  45  46  47  48 0
 3-21G
 ****


