%nproc=1
%NoSave
%Mem=1900MB
#P OB98/GEN NMR

erre ene a

0 1
  C      147.409     241.253     331.049
  O      147.287     239.906     331.458
  H      146.816     241.398     330.142
  H      148.450     241.500     330.828
  H      147.025     241.918     331.826
  P      148.187     239.385     332.676
  C      150.327     238.832     331.354
  O      149.710     239.708     332.288
  C      151.837     239.071     331.301
  O      152.436     238.056     330.453
  C      152.220     240.446     330.741
  O      153.361     240.922     331.459
  C      152.588     240.129     329.307
  O      153.454     241.107     328.763
  C      153.188     238.725     329.424
  N      153.124     238.013     328.148
  C      153.989     238.456     327.144
  O      154.765     239.390     327.359
  N      153.915     237.883     325.901
  C      153.016     236.981     325.663
  N      152.970     236.481     324.398
  C      152.062     236.502     326.683
  C      152.172     237.053     327.892
  O      147.942     237.982     333.123
  O      147.880     240.434     333.846
  H      152.960     241.946     328.639
  H      147.133     240.121     334.388
  H      151.327     235.752     326.432
  H      151.508     236.773     328.701
  H      154.234     238.773     329.750
  H      151.682     240.103     328.691
  H      151.408     241.176     330.804
  H      152.248     238.929     332.307
  H      153.626     236.857     323.726
  H      149.890     239.029     330.369
  H      152.287     235.808     324.083
  H      150.121     237.792     331.629
  P      153.181     241.809     332.783
  C      153.472     244.114     331.708
  O      152.569     243.240     332.375
  O      154.390     241.880     333.658
  O      151.970     241.101     333.557
  H      152.081     241.229     334.518
  H      152.975     245.034     331.480
  H      153.808     243.656     330.801
  H      154.312     244.310     332.341

 6  7  8  9  10  11  12  13  14  15  16  26  30  31  32  33  35 0
 6-311+G(2d,p)
 ****
 37  38 0
 6-311+G(2d,p)
 ****
 1  2  3  4  5  17  18  19  20  21  22  23  24  25 0
 3-21G
 ****
 27  28  29  34  36  39  40  41  42  43  44  45  46 0
 3-21G
 ****


