%nproc=1
%NoSave
%Mem=1900MB
#P OB98/GEN NMR

erre ene a

0 1
  C      120.296    -156.001      70.863
  O      121.522    -155.440      70.438
  H      120.487    -156.985      71.294
  H      119.625    -156.116      70.008
  H      119.828    -155.367      71.622
  P      121.513    -153.904      69.988
  C      121.550    -152.934      72.402
  O      120.831    -153.080      71.187
  C      121.782    -151.452      72.700
  O      120.493    -150.824      72.965
  C      122.679    -151.194      73.919
  O      123.476    -150.031      73.656
  C      121.681    -150.872      75.018
  O      122.228    -150.111      76.085
  C      120.609    -150.127      74.223
  N      119.324    -150.081      74.918
  C      118.957    -148.876      75.511
  O      119.593    -147.833      75.419
  N      117.796    -148.909      76.240
  C      117.000    -149.996      76.448
  O      115.984    -149.965      77.133
  C      117.448    -151.243      75.801
  C      118.570    -151.231      75.084
  O      120.407    -153.871      68.835
  O      122.828    -153.359      69.537
  H      120.812    -154.047      67.968
  H      122.482    -149.239      75.724
  H      117.519    -148.045      76.673
  H      116.845    -152.129      75.956
  H      118.936    -152.134      74.615
  H      120.941    -149.107      73.999
  H      121.282    -151.801      75.437
  H      123.330    -152.037      74.186
  H      122.191    -150.973      71.803
  H      122.519    -153.433      72.310
  H      120.985    -153.405      73.215
  P      125.064    -150.166      73.843
  C      125.364    -150.927      71.356
  O      125.540    -151.219      72.731
  O      125.141    -150.977      75.221
  O      125.765    -148.852      73.843
  H      124.424    -151.623      75.321
  H      125.738    -151.739      70.768
  H      125.898    -150.033      71.110
  H      124.323    -150.788      71.151

 6  7  8  9  10  11  12  13  14  15  16  27  31  32  33  34  35 0
 6-311+G(2d,p)
 ****
 36  37 0
 6-311+G(2d,p)
 ****
 1  2  3  4  5  17  18  19  20  21  22  23  24  25 0
 3-21G
 ****
 26  28  29  30  38  39  40  41  42  43  44  45 0
 3-21G
 ****


