%nproc=1
%NoSave
%Mem=1900MB
#P OB98/GEN NMR

erre ene a

0 1
  C      226.054     606.353     206.774
  O      225.987     606.952     208.067
  P      226.941     606.581     209.294
  C      227.974     608.974     209.596
  O      227.199     607.909     210.146
  C      227.662     610.333     210.237
  O      226.455     610.883     209.649
  C      227.387     610.167     211.733
  O      228.462     610.107     212.656
  C      226.349     611.250     212.054
  O      226.948     612.449     212.541
  C      225.673     611.489     210.709
  N      220.763     612.291     211.895
  C      221.868     613.063     212.204
  N      221.654     614.155     212.965
  N      223.077     612.764     211.811
  C      223.168     611.605     211.124
  C      222.145     610.746     210.786
  C      220.794     611.109     211.168
  O      219.779     610.474     210.922
  N      222.615     609.648     210.112
  C      223.919     609.819     210.077
  N      224.299     611.001     210.671
  O      228.123     605.743     208.952
  O      225.981     605.702     210.249
  H      226.234     613.084     212.736
  H      226.555     605.038     210.691
  H      219.850     612.577     212.204
  H      224.630     609.135     209.626
  H      225.623     612.562     210.474
  H      225.667     610.902     212.843
  H      220.769     614.371     213.395
  H      226.858     609.210     211.860
  H      222.485     614.591     213.368
  H      228.455     611.055     210.026
  H      227.753     608.999     208.522
  H      229.037     608.755     209.693
  P      228.340     609.874     214.231
  C      229.918     607.861     214.244
  O      229.683     609.160     214.734
  O      227.259     608.701     214.374
  O      227.933     611.076     215.026
  H      226.915     608.654     215.290
  H      230.668     607.367     214.863
  H      230.295     607.918     213.215
  H      229.005     607.259     214.256
  H      225.305     606.783     206.143
  H      225.887     605.300     206.860
  H      227.021     606.528     206.350

 3  4  5  6  7  8  9  10  11  12  23  26  30  31 0
 6-311+G(2d,p)
 ****
 33  35  36  37  38 0
 6-311+G(2d,p)
 ****
 1  2  13  14  15  16  17  18  19  20  21  22  24  25 0
 3-21G
 ****
 27  28  29  32  34  39  40  41  42  43  44  45  46  47  48  49 0
 3-21G
 ****


