%nproc=1
%NoSave
%Mem=1900MB
#P OB98/GEN NMR

erre ene a

0 1
  C      277.512    -371.645     -51.957
  O      276.997    -370.989     -50.814
  H      278.351    -372.273     -51.651
  H      277.864    -370.923     -52.696
  H      276.740    -372.284     -52.398
  P      275.940    -369.803     -51.036
  C      274.010    -371.459     -51.460
  O      274.809    -370.411     -52.003
  C      272.682    -370.923     -50.926
  O      272.905    -369.942     -49.893
  C      271.836    -370.209     -51.969
  O      271.338    -371.033     -52.997
  C      270.862    -369.429     -51.098
  O      269.760    -370.226     -50.668
  C      271.756    -369.062     -49.889
  N      272.151    -367.657     -49.895
  C      271.308    -366.786     -49.218
  O      270.275    -367.136     -48.657
  N      271.682    -365.467     -49.233
  C      272.757    -364.949     -49.885
  O      273.027    -363.753     -49.881
  C      273.590    -365.919     -50.619
  C      273.258    -367.207     -50.591
  O      276.517    -368.504     -51.519
  O      275.188    -369.688     -49.628
  H      269.200    -369.659     -50.103
  H      274.690    -368.838     -49.556
  H      271.091    -364.818     -48.735
  H      274.448    -365.539     -51.158
  H      273.856    -367.944     -51.118
  H      271.221    -369.260     -48.949
  H      270.450    -368.560     -51.617
  H      272.468    -369.460     -52.467
  H      272.135    -371.760     -50.476
  H      274.570    -371.912     -50.635
  H      273.832    -372.218     -52.226
  P      271.167    -370.563     -54.508
  C      273.322    -371.324     -55.781
  O      272.623    -370.275     -55.121
  O      270.082    -369.574     -54.785
  O      270.764    -371.951     -55.235
  H      270.145    -371.724     -55.957
  H      274.268    -370.961     -56.125
  H      272.746    -371.666     -56.615
  H      273.477    -372.134     -55.099

 6  7  8  9  10  11  12  13  14  15  16  26  31  32  33  34  35 0
 6-311+G(2d,p)
 ****
 36  37 0
 6-311+G(2d,p)
 ****
 1  2  3  4  5  17  18  19  20  21  22  23  24  25 0
 3-21G
 ****
 27  28  29  30  38  39  40  41  42  43  44  45 0
 3-21G
 ****


