%nproc=1
%NoSave
%Mem=1900MB
#P OB98/GEN NMR

erre ene a

0 1
  C      -81.423     -13.323     -75.839
  O      -80.267     -12.552     -76.120
  P      -80.296     -11.603     -77.414
  C      -79.309     -13.557     -78.879
  O      -80.330     -12.591     -78.676
  C      -79.600     -14.376     -80.136
  O      -80.774     -15.190     -79.933
  C      -79.892     -13.547     -81.380
  O      -78.707     -13.010     -81.948
  C      -80.612     -14.567     -82.254
  O      -79.658     -15.429     -82.900
  C      -81.425     -15.359     -81.212
  N      -82.827     -14.957     -81.148
  C      -83.700     -15.628     -82.001
  O      -83.337     -16.516     -82.773
  N      -85.008     -15.232     -81.948
  C      -85.510     -14.209     -81.194
  O      -86.684     -13.866     -81.221
  C      -84.535     -13.516     -80.339
  C      -83.262     -13.914     -80.354
  O      -78.804     -11.026     -77.388
  O      -81.376     -10.576     -77.365
  H      -78.186     -11.638     -76.952
  H      -80.162     -15.963     -83.544
  H      -85.664     -15.718     -82.540
  H      -84.893     -12.692     -79.733
  H      -82.529     -13.409     -79.737
  H      -81.383     -16.434     -81.434
  H      -81.216     -14.100     -83.040
  H      -80.580     -12.730     -81.128
  H      -78.748     -15.046     -80.315
  H      -79.270     -14.218     -78.010
  H      -78.346     -13.041     -78.968
  P      -78.888     -11.738     -82.916
  C      -78.915     -13.234     -85.056
  O      -79.579     -12.283     -84.253
  O      -77.371     -11.453     -83.340
  O      -79.575     -10.581     -82.264
  H      -76.873     -12.267     -83.538
  H      -79.655     -13.737     -85.688
  H      -78.406     -13.986     -84.447
  H      -78.189     -12.729     -85.699
  H      -81.259     -13.902     -74.954
  H      -81.624     -13.977     -76.661
  H      -82.259     -12.672     -75.689

 3  4  5  6  7  8  9  10  11  12  13  24  28  29  30  31  32 0
 6-311+G(2d,p)
 ****
 33  34 0
 6-311+G(2d,p)
 ****
 1  2  14  15  16  17  18  19  20  21  22  23  25  26  27 0
 3-21G
 ****
 35  36  37  38  39  40  41  42  43  44  45 0
 3-21G
 ****


