%nproc=1
%NoSave
%Mem=1900MB
#P OB98/GEN NMR

erre ene a

0 1
  C     -149.469     -51.591      10.328
  O     -150.483     -50.732       9.795
  P     -150.076     -49.215       9.470
  C     -148.806     -49.961       7.334
  O     -149.771     -49.089       7.899
  C     -148.636     -49.708       5.828
  O     -149.732     -50.301       5.077
  C     -148.599     -48.223       5.459
  O     -147.778     -48.070       4.294
  C     -150.039     -47.941       5.077
  O     -150.157     -46.752       4.297
  C     -150.390     -49.240       4.354
  N     -154.552     -48.476       1.610
  C     -153.252     -48.067       1.389
  N     -153.022     -47.382       0.249
  N     -152.264     -48.309       2.211
  C     -152.639     -49.035       3.292
  C     -153.892     -49.493       3.627
  C     -154.979     -49.196       2.720
  O     -156.153     -49.521       2.872
  N     -153.875     -50.172       4.819
  C     -152.615     -50.119       5.205
  N     -151.820     -49.472       4.296
  O     -148.627     -49.082      10.141
  O     -151.023     -48.203      10.024
  H     -149.462     -46.786       3.604
  H     -148.684     -48.525      10.938
  H     -155.276     -48.254       0.949
  H     -152.227     -50.527       6.126
  H     -150.023     -49.254       3.320
  H     -150.647     -47.819       5.982
  H     -153.727     -47.207      -0.452
  H     -148.233     -47.561       6.248
  H     -152.070     -47.106       0.041
  H     -147.712     -50.196       5.495
  H     -149.099     -51.002       7.494
  H     -147.859     -49.836       7.867
  P     -146.380     -47.311       4.486
  C     -145.560     -49.598       5.401
  O     -145.267     -48.453       4.622
  O     -146.480     -46.706       5.964
  O     -146.098     -46.257       3.466
  H     -145.901     -45.927       6.052
  H     -145.785     -50.434       4.734
  H     -146.406     -49.432       6.074
  H     -144.681     -49.849       5.999
  H     -149.879     -52.565      10.495
  H     -149.113     -51.190      11.254
  H     -148.658     -51.659       9.633

 3  4  5  6  7  8  9  10  11  12  23  26  30  31 0
 6-311+G(2d,p)
 ****
 33  35  36  37  38 0
 6-311+G(2d,p)
 ****
 1  2  13  14  15  16  17  18  19  20  21  22  24  25 0
 3-21G
 ****
 27  28  29  32  34  39  40  41  42  43  44  45  46  47  48  49 0
 3-21G
 ****


