%nproc=1
%NoSave
%Mem=1900MB
#P OB98/GEN NMR

erre ene a

0 1
  C      -79.543      82.173     -62.758
  O      -78.241      81.714     -63.113
  P      -77.696      81.590     -64.608
  C      -76.783      83.938     -65.333
  O      -76.515      82.651     -64.797
  C      -75.945      84.260     -66.582
  O      -76.425      85.491     -67.183
  C      -74.484      84.504     -66.200
  O      -73.601      83.412     -66.032
  C      -73.996      85.549     -67.194
  O      -73.356      84.967     -68.330
  C      -75.284      86.262     -67.615
  N      -76.006      91.224     -68.627
  C      -75.931      90.158     -69.499
  N      -76.007      90.450     -70.815
  N      -75.776      88.919     -69.117
  C      -75.626      88.777     -67.782
  C      -75.662      89.758     -66.818
  C      -75.892      91.122     -67.246
  O      -75.979      92.102     -66.514
  N      -75.449      89.241     -65.565
  C      -75.260      87.954     -65.774
  N      -75.365      87.621     -67.105
  O      -78.740      81.543     -65.672
  O      -76.934      80.168     -64.608
  H      -73.239      85.665     -68.999
  H      -77.041      79.796     -65.508
  H      -76.150      92.157     -68.974
  H      -75.051      87.223     -65.002
  H      -75.356      86.337     -68.706
  H      -73.257      86.210     -66.726
  H      -76.006      91.390     -71.178
  H      -74.490      85.010     -65.226
  H      -75.735      89.706     -71.461
  H      -76.070      83.486     -67.344
  H      -76.578      84.661     -64.538
  H      -77.844      84.030     -65.569
  P      -73.000      82.885     -64.645
  C      -74.569      80.899     -64.252
  O      -73.249      81.307     -64.566
  O      -74.011      83.455     -63.544
  O      -71.600      83.320     -64.357
  H      -73.607      83.416     -62.657
  H      -74.550      79.856     -63.926
  H      -75.199      80.982     -65.142
  H      -74.987      81.514     -63.450
  H      -79.649      82.158     -61.693
  H      -80.279      81.533     -63.199
  H      -79.679      83.172     -63.116

 3  4  5  6  7  8  9  10  11  12  23  26  30  31 0
 6-311+G(2d,p)
 ****
 33  35  36  37  38 0
 6-311+G(2d,p)
 ****
 1  2  13  14  15  16  17  18  19  20  21  22  24  25 0
 3-21G
 ****
 27  28  29  32  34  39  40  41  42  43  44  45  46  47  48  49 0
 3-21G
 ****


