%nproc=1
%NoSave
%Mem=1900MB
#P OB98/GEN NMR

erre ene a

0 1
  C      -42.593    -118.007      60.139
  O      -42.618    -118.852      61.274
  H      -43.304    -117.192      60.292
  H      -42.891    -118.571      59.252
  H      -41.594    -117.586      59.998
  P      -41.574    -120.070      61.294
  C      -41.083    -121.905      59.526
  O      -42.069    -121.107      60.167
  C      -41.735    -123.042      58.740
  O      -42.252    -124.032      59.681
  C      -42.910    -122.603      57.846
  O      -42.895    -123.414      56.666
  C      -44.126    -122.989      58.673
  O      -45.300    -123.135      57.876
  C      -43.621    -124.285      59.308
  N      -47.884    -126.606      60.658
  C      -47.320    -126.412      59.410
  N      -47.999    -126.915      58.356
  N      -46.193    -125.781      59.211
  C      -45.608    -125.361      60.357
  C      -46.060    -125.483      61.651
  C      -47.324    -126.160      61.856
  O      -47.880    -126.345      62.935
  N      -45.187    -124.898      62.539
  C      -44.209    -124.425      61.781
  N      -44.421    -124.682      60.453
  O      -41.927    -120.811      62.671
  O      -40.134    -119.683      61.220
  H      -45.432    -122.299      57.378
  H      -41.352    -120.484      63.388
  H      -48.757    -127.087      60.755
  H      -43.339    -123.891      62.141
  H      -43.635    -125.129      58.605
  H      -44.324    -122.227      59.437
  H      -48.847    -127.454      58.436
  H      -42.893    -121.543      57.567
  H      -47.583    -126.823      57.434
  H      -40.961    -123.547      58.148
  H      -40.419    -122.329      60.287
  H      -40.493    -121.274      58.851
  P      -42.381    -122.750      55.298
  C      -43.366    -121.147      53.499
  O      -43.617    -121.983      54.619
  O      -42.182    -124.018      54.338
  O      -41.121    -121.958      55.439
  H      -41.496    -123.827      53.673
  H      -44.285    -120.712      53.166
  H      -42.939    -121.728      52.709
  H      -42.685    -120.371      53.779

 6  7  8  9  10  11  12  13  14  15  26  29  33  34 0
 6-311+G(2d,p)
 ****
 36  38  39  40  41 0
 6-311+G(2d,p)
 ****
 1  2  3  4  5  16  17  18  19  20  21  22  23  24  25 0
 3-21G
 ****
 27  28  30  31  32  35  37  42  43  44  45  46  47 0
 3-21G
 ****
 48  49 0
 3-21G
 ****


