%nproc=1
%NoSave
%Mem=1900MB
#P OB98/GEN NMR

erre ene a

0 1
  C     -198.482      78.162     189.384
  O     -198.442      79.431     188.751
  P     -197.836      79.603     187.272
  C     -195.555      79.096     186.195
  O     -196.286      79.207     187.411
  C     -194.149      79.673     186.371
  O     -194.262      81.104     186.547
  C     -193.374      79.176     187.595
  O     -192.692      77.948     187.403
  C     -192.352      80.299     187.753
  O     -191.287      80.131     186.796
  C     -193.180      81.543     187.411
  N     -192.134      84.580     191.402
  C     -191.369      84.139     190.372
  N     -191.718      83.315     189.359
  C     -193.017      82.978     189.447
  C     -193.918      83.352     190.434
  C     -193.430      84.196     191.451
  N     -194.219      84.661     192.485
  N     -195.162      82.788     190.200
  C     -195.005      82.101     189.085
  N     -193.732      82.189     188.589
  O     -198.119      80.918     186.636
  O     -198.445      78.372     186.451
  H     -190.644      80.849     186.957
  H     -198.353      78.529     185.490
  H     -190.337      84.490     190.368
  H     -195.782      81.521     188.605
  H     -192.602      82.294     186.852
  H     -191.892      80.318     188.748
  H     -194.013      79.142     188.488
  H     -193.580      79.489     185.450
  H     -196.080      79.665     185.422
  H     -193.819      85.360     193.093
  H     -195.215      84.507     192.431
  H     -195.515      78.047     185.882
  P     -192.299      77.110     188.723
  C     -191.140      77.765     190.977
  O     -191.501      78.135     189.664
  O     -191.615      75.813     188.454
  O     -193.713      76.946     189.470
  H     -194.098      77.772     189.806
  H     -190.472      78.531     191.389
  H     -190.616      76.810     190.983
  H     -192.033      77.705     191.610
  H     -198.919      78.262     190.356
  H     -197.487      77.779     189.478
  H     -199.070      77.488     188.796

 3  4  5  6  7  8  9  10  11  12  22  25  29  30  31  32 0
 6-311+G(2d,p)
 ****
 33  36  37 0
 6-311+G(2d,p)
 ****
 1  2  13  14  15  16  17  18  19  20  21  23  24  26 0
 3-21G
 ****
 27  28  34  35  38  39  40  41  42  43  44  45  46  47  48 0
 3-21G
 ****


