%nproc=1
%NoSave
%Mem=1900MB
#P OB98/GEN NMR

erre ene a

0 1
  C      563.989     -48.607     455.955
  O      562.704     -49.072     456.313
  H      564.345     -47.927     456.733
  H      563.947     -48.060     455.004
  H      564.691     -49.441     455.874
  P      561.938     -50.060     455.307
  C      560.294     -48.153     454.721
  O      561.216     -49.123     454.228
  C      559.028     -48.835     455.235
  O      558.051     -47.853     455.623
  C      558.344     -49.742     454.211
  O      558.979     -51.009     454.161
  C      556.944     -49.818     454.800
  O      556.938     -50.721     455.923
  C      556.727     -48.373     455.288
  N      552.362     -46.449     453.553
  C      552.588     -47.445     454.485
  N      551.484     -48.036     455.004
  N      553.771     -47.837     454.860
  C      554.780     -47.208     454.208
  C      554.687     -46.220     453.253
  C      553.365     -45.745     452.896
  O      553.128     -44.847     452.092
  N      555.919     -45.894     452.749
  C      556.761     -46.642     453.433
  N      556.119     -47.468     454.325
  O      561.027     -51.070     455.940
  O      563.108     -50.751     454.467
  H      557.414     -51.527     455.647
  H      563.395     -51.589     454.880
  H      551.431     -46.190     453.297
  H      557.838     -46.627     453.329
  H      556.123     -48.331     456.196
  H      556.203     -50.184     454.085
  H      550.554     -47.879     454.649
  H      558.294     -49.272     453.227
  H      551.631     -48.811     455.646
  H      559.300     -49.401     456.142
  H      560.055     -47.478     453.892
  H      560.753     -47.567     455.526
  P      559.141     -51.817     452.781
  C      556.887     -53.052     453.069
  O      557.645     -52.134     452.300
  O      560.045     -52.999     452.851
  O      559.599     -50.704     451.726
  H      560.582     -50.552     451.728
  H      555.916     -53.166     452.634
  H      556.789     -52.684     454.069
  H      557.384     -54.000     453.085

 6  7  8  9  10  11  12  13  14  15  26  29  33  34 0
 6-311+G(2d,p)
 ****
 36  38  39  40  41 0
 6-311+G(2d,p)
 ****
 1  2  3  4  5  16  17  18  19  20  21  22  23  24  25 0
 3-21G
 ****
 27  28  30  31  32  35  37  42  43  44  45  46  47 0
 3-21G
 ****
 48  49 0
 3-21G
 ****


