%nproc=1
%NoSave
%Mem=1900MB
#P OB98/GEN NMR

erre ene a

0 1
  C     -587.850    1767.059     234.890
  O     -588.173    1767.885     233.800
  H     -587.464    1767.690     235.701
  H     -587.090    1766.350     234.610
  H     -588.753    1766.540     235.258
  P     -588.890    1767.241     232.517
  C     -591.163    1767.632     233.724
  O     -590.344    1766.711     233.000
  C     -592.620    1767.132     233.766
  O     -593.089    1766.924     232.418
  C     -592.772    1765.804     234.544
  O     -593.981    1765.843     235.269
  C     -592.862    1764.764     233.431
  O     -593.585    1763.615     233.833
  C     -593.546    1765.559     232.319
  N     -595.609    1763.912     227.992
  C     -596.198    1764.510     229.103
  N     -597.539    1764.628     229.056
  N     -595.541    1764.890     230.150
  C     -594.194    1764.693     230.040
  C     -593.499    1764.133     229.015
  C     -594.238    1763.686     227.862
  O     -593.762    1763.153     226.858
  N     -592.131    1764.125     229.296
  C     -592.041    1764.635     230.504
  N     -593.247    1765.014     230.995
  O     -588.091    1766.233     231.779
  O     -589.269    1768.483     231.592
  H     -593.679    1763.035     233.042
  H     -588.669    1768.535     230.820
  H     -596.142    1763.623     227.235
  H     -591.117    1764.786     231.048
  H     -594.637    1765.556     232.421
  H     -591.854    1764.463     233.105
  H     -598.106    1764.381     228.263
  H     -591.935    1765.623     235.214
  H     -598.009    1765.089     229.845
  H     -593.230    1767.915     234.233
  H     -591.111    1768.584     233.171
  H     -590.764    1767.774     234.713
  P     -593.952    1765.548     236.872
  C     -594.422    1767.999     237.508
  O     -593.531    1766.899     237.620
  O     -593.195    1764.319     237.245
  O     -595.516    1765.407     237.231
  H     -595.595    1764.748     237.940
  H     -594.028    1768.834     238.049
  H     -595.375    1767.729     237.914
  H     -594.535    1768.263     236.477

 6  7  8  9  10  11  12  13  14  15  26  29  33  34 0
 6-311+G(2d,p)
 ****
 36  38  39  40  41 0
 6-311+G(2d,p)
 ****
 1  2  3  4  5  16  17  18  19  20  21  22  23  24  25 0
 3-21G
 ****
 27  28  30  31  32  35  37  42  43  44  45  46  47 0
 3-21G
 ****
 48  49 0
 3-21G
 ****


