%nproc=1
%NoSave
%Mem=1900MB
#P OB98/GEN NMR

erre ene a

0 1
  C      -77.196     -10.162     -58.018
  O      -78.419      -9.696     -58.554
  H      -76.894     -11.059     -58.565
  H      -77.305     -10.415     -56.960
  H      -76.421      -9.401     -58.140
  P      -79.213      -8.557     -57.748
  C      -78.746      -6.059     -57.313
  O      -78.180      -7.332     -57.614
  C      -77.747      -5.171     -56.572
  O      -77.505      -5.674     -55.241
  C      -76.373      -5.105     -57.219
  O      -76.341      -4.463     -58.473
  C      -75.518      -4.565     -56.084
  O      -75.598      -3.144     -55.972
  C      -76.184      -5.232     -54.855
  N      -75.385      -6.327     -54.318
  C      -74.275      -5.960     -53.567
  O      -73.945      -4.790     -53.368
  N      -73.523      -6.990     -53.071
  C      -73.744      -8.318     -53.289
  O      -73.019      -9.194     -52.832
  C      -74.911      -8.644     -54.123
  C      -75.669      -7.649     -54.592
  O      -79.817      -8.988     -56.444
  O      -80.282      -8.015     -58.805
  H      -75.136      -2.898     -55.148
  H      -80.989      -7.486     -58.359
  H      -72.722      -6.744     -52.510
  H      -75.109      -9.687     -54.327
  H      -76.537      -7.866     -55.209
  H      -76.327      -4.494     -54.054
  H      -74.464      -4.822     -56.204
  H      -76.031      -6.132     -57.402
  H      -78.189      -4.173     -56.474
  H      -79.622      -6.225     -56.677
  H      -79.068      -5.574     -58.240
  P      -75.180      -4.669     -59.545
  C      -74.161      -6.685     -60.859
  O      -74.977      -6.241     -59.783
  O      -73.962      -3.819     -59.384
  O      -75.914      -4.216     -60.910
  H      -75.236      -3.793     -61.474
  H      -74.136      -7.755     -60.870
  H      -73.168      -6.307     -60.733
  H      -74.564      -6.328     -61.783

 6  7  8  9  10  11  12  13  14  15  16  26  31  32  33  34  35 0
 6-311+G(2d,p)
 ****
 36  37 0
 6-311+G(2d,p)
 ****
 1  2  3  4  5  17  18  19  20  21  22  23  24  25 0
 3-21G
 ****
 27  28  29  30  38  39  40  41  42  43  44  45 0
 3-21G
 ****


