%nproc=1
%NoSave
%Mem=1900MB
#P OB98/GEN NMR

erre ene a

0 1
  C      231.276     -84.750      89.573
  O      230.380     -83.655      89.635
  H      232.095     -84.573      90.279
  H      231.691     -84.839      88.565
  H      230.760     -85.673      89.848
  P      229.136     -83.697      88.624
  C      227.287     -84.477      90.258
  O      228.139     -84.823      89.179
  C      225.873     -84.999      90.012
  O      225.239     -84.265      88.939
  C      225.800     -86.472      89.633
  O      225.824     -87.294      90.790
  C      224.466     -86.525      88.903
  O      223.365     -86.578      89.832
  C      224.465     -85.194      88.138
  N      224.144     -87.510      83.656
  C      223.461     -87.747      84.833
  N      222.586     -88.775      84.830
  N      223.637     -87.056      85.933
  C      224.587     -86.095      85.807
  C      225.325     -85.758      84.695
  C      225.079     -86.501      83.477
  O      225.592     -86.283      82.377
  N      226.178     -84.714      84.959
  C      225.975     -84.440      86.235
  N      225.019     -85.257      86.792
  O      229.754     -84.365      87.301
  O      228.516     -82.375      88.314
  H      223.332     -85.750      90.335
  H      229.361     -83.934      86.520
  H      223.941     -88.053      82.834
  H      226.481     -83.665      86.795
  H      223.457     -84.779      88.039
  H      224.386     -87.421      88.280
  H      222.623     -89.510      84.140
  H      226.605     -86.740      88.939
  H      222.145     -88.998      85.717
  H      225.288     -84.808      90.921
  H      227.259     -83.389      90.356
  H      227.681     -84.912      91.185
  P      226.706     -88.632      90.751
  C      228.604     -88.074      92.430
  O      228.228     -88.236      91.065
  O      226.730     -88.994      89.190
  O      226.154     -89.761      91.554
  H      226.140     -89.749      89.016
  H      229.640     -87.812      92.486
  H      228.439     -88.991      92.957
  H      228.016     -87.297      92.872

 6  7  8  9  10  11  12  13  14  15  26  29  33  34 0
 6-311+G(2d,p)
 ****
 36  38  39  40  41 0
 6-311+G(2d,p)
 ****
 1  2  3  4  5  16  17  18  19  20  21  22  23  24  25 0
 3-21G
 ****
 27  28  30  31  32  35  37  42  43  44  45  46  47 0
 3-21G
 ****
 48  49 0
 3-21G
 ****


