%nproc=1
%NoSave
%Mem=1900MB
#P OB98/GEN NMR

erre ene a

0 1
  C     -361.497    -145.882      99.269
  O     -362.332    -146.934      98.827
  H     -360.911    -146.235     100.123
  H     -362.101    -145.026      99.586
  H     -360.813    -145.582      98.470
  P     -363.320    -146.590      97.610
  C     -361.948    -147.854      95.813
  O     -362.421    -146.599      96.280
  C     -362.667    -148.252      94.526
  O     -363.989    -148.754      94.817
  C     -362.839    -147.115      93.524
  O     -361.672    -146.952      92.737
  C     -364.028    -147.611      92.715
  O     -363.617    -148.587      91.735
  C     -364.904    -148.265      93.796
  N     -369.844    -147.540      94.554
  C     -369.185    -148.513      93.824
  N     -369.960    -149.410      93.172
  N     -367.885    -148.591      93.723
  C     -367.239    -147.594      94.377
  C     -367.775    -146.577      95.132
  C     -369.217    -146.536      95.275
  O     -369.854    -145.751      95.978
  N     -366.794    -145.773      95.651
  C     -365.671    -146.284      95.184
  N     -365.891    -147.389      94.402
  O     -363.646    -145.034      97.822
  O     -364.572    -147.398      97.553
  H     -363.242    -149.359      92.191
  H     -364.580    -144.875      97.588
  H     -370.846    -147.548      94.619
  H     -364.678    -145.902      95.390
  H     -365.451    -149.132      93.412
  H     -364.505    -146.800      92.161
  H     -370.933    -149.232      92.973
  H     -363.110    -146.181      94.031
  H     -369.477    -150.074      92.579
  H     -362.101    -149.078      94.075
  H     -362.132    -148.613      96.581
  H     -360.871    -147.788      95.627
  P     -361.207    -145.462      92.373
  C     -358.819    -145.270      93.373
  O     -360.201    -144.960      93.517
  O     -362.534    -144.603      92.636
  O     -360.728    -145.285      90.972
  H     -362.940    -144.351      91.788
  H     -358.276    -144.874      94.205
  H     -358.449    -144.837      92.467
  H     -358.693    -146.332      93.338

 6  7  8  9  10  11  12  13  14  15  26  29  33  34 0
 6-311+G(2d,p)
 ****
 36  38  39  40  41 0
 6-311+G(2d,p)
 ****
 1  2  3  4  5  16  17  18  19  20  21  22  23  24  25 0
 3-21G
 ****
 27  28  30  31  32  35  37  42  43  44  45  46  47 0
 3-21G
 ****
 48  49 0
 3-21G
 ****


