%nproc=1
%NoSave
%Mem=1900MB
#P OB98/GEN NMR

erre ene a

0 1
  C     -523.704     -15.835      65.701
  O     -525.061     -15.778      66.086
  P     -526.091     -14.691      65.541
  C     -527.755     -14.953      67.524
  O     -526.909     -14.075      66.783
  C     -527.962     -14.516      68.982
  O     -526.671     -14.406      69.632
  C     -528.591     -13.108      69.027
  O     -529.990     -12.952      68.906
  C     -527.968     -12.435      70.248
  O     -528.820     -12.492      71.393
  C     -526.686     -13.240      70.491
  N     -524.144      -8.958      71.456
  C     -525.247      -9.478      72.104
  N     -525.844      -8.671      72.999
  N     -525.716     -10.675      71.885
  C     -525.060     -11.345      70.894
  C     -523.954     -10.930      70.181
  C     -523.423      -9.619      70.468
  O     -522.499      -9.086      69.851
  N     -523.613     -11.831      69.202
  C     -524.535     -12.770      69.290
  N     -525.455     -12.492      70.270
  O     -526.861     -15.059      64.298
  O     -525.105     -13.477      65.148
  H     -528.470     -11.864      72.056
  H     -525.474     -13.034      64.351
  H     -523.878      -7.986      71.612
  H     -524.601     -13.636      68.642
  H     -526.662     -13.613      71.517
  H     -527.783     -11.370      70.053
  H     -525.599      -7.685      73.089
  H     -528.183     -12.556      68.166
  H     -526.750      -8.944      73.375
  H     -528.518     -15.264      69.549
  H     -527.310     -15.963      67.479
  H     -528.736     -15.014      67.036
  P     -530.746     -11.794      68.097
  C     -532.932     -11.908      69.418
  O     -531.817     -11.108      69.071
  O     -531.682     -12.589      67.044
  O     -529.848     -10.841      67.364
  H     -531.906     -12.006      66.298
  H     -533.725     -11.267      69.827
  H     -532.645     -12.627      70.199
  H     -533.316     -12.435      68.550
  H     -523.225     -16.650      66.202
  H     -523.219     -14.919      65.966
  H     -523.639     -15.980      64.643

 3  4  5  6  7  8  9  10  11  12  23  26  30  31 0
 6-311+G(2d,p)
 ****
 33  35  36  37  38 0
 6-311+G(2d,p)
 ****
 1  2  13  14  15  16  17  18  19  20  21  22  24  25 0
 3-21G
 ****
 27  28  29  32  34  39  40  41  42  43  44  45  46  47  48  49 0
 3-21G
 ****


