%nproc=1
%NoSave
%Mem=1900MB
#P OB98/GEN NMR

erre ene a

0 1
  C     -744.086     558.662    -110.064
  O     -742.867     558.156    -110.609
  P     -742.288     558.833    -111.937
  C     -739.762     559.069    -111.421
  O     -741.018     559.742    -111.551
  C     -739.361     558.977    -109.942
  O     -740.297     558.133    -109.236
  C     -737.974     558.362    -109.691
  O     -736.847     559.212    -109.675
  C     -738.142     557.828    -108.273
  O     -737.906     558.904    -107.322
  C     -739.600     557.414    -108.205
  N     -740.051     552.903    -105.801
  C     -739.874     554.159    -105.328
  N     -739.780     555.313    -106.046
  C     -739.875     555.062    -107.348
  C     -740.041     553.839    -107.976
  C     -740.135     552.718    -107.128
  N     -740.297     551.436    -107.589
  N     -740.089     553.976    -109.352
  C     -739.926     555.276    -109.554
  N     -739.807     555.973    -108.382
  O     -743.298     559.466    -112.839
  O     -741.601     557.579    -112.677
  H     -737.010     559.239    -107.518
  H     -741.736     557.673    -113.654
  H     -739.834     554.274    -104.248
  H     -739.891     555.731    -110.529
  H     -740.072     557.677    -107.243
  H     -737.420     557.047    -108.035
  H     -737.806     557.525    -110.383
  H     -739.414     559.986    -109.493
  H     -739.004     559.618    -111.978
  H     -740.319     550.683    -106.924
  H     -740.295     551.260    -108.603
  H     -739.875     558.073    -111.898
  P     -735.925     559.423    -110.983
  C     -735.201     561.931    -110.791
  O     -736.068     560.966    -111.367
  O     -736.223     558.484    -112.111
  O     -734.453     559.318    -110.397
  H     -734.189     560.060    -109.824
  H     -735.306     562.872    -111.343
  H     -734.162     561.602    -110.850
  H     -735.463     562.087    -109.739
  H     -744.340     558.109    -109.184
  H     -744.869     558.561    -110.786
  H     -743.963     559.695    -109.813

 3  4  5  6  7  8  9  10  11  12  22  25  29  30  31  32 0
 6-311+G(2d,p)
 ****
 33  36  37 0
 6-311+G(2d,p)
 ****
 1  2  13  14  15  16  17  18  19  20  21  23  24  26 0
 3-21G
 ****
 27  28  34  35  38  39  40  41  42  43  44  45  46  47  48 0
 3-21G
 ****


