%nproc=1
%NoSave
%Mem=1900MB
#P OB98/GEN NMR

erre ene a

0 1
  C     -272.653    -254.029      47.800
  O     -272.468    -255.215      48.549
  H     -272.943    -253.226      48.482
  H     -273.446    -254.168      47.059
  H     -271.722    -253.751      47.301
  P     -272.093    -256.540      47.727
  C     -273.309    -257.893      45.874
  O     -273.432    -257.015      46.983
  C     -274.649    -257.988      45.146
  O     -275.154    -256.660      44.875
  C     -274.571    -258.676      43.789
  O     -274.516    -260.087      43.903
  C     -275.858    -258.186      43.145
  O     -276.983    -258.988      43.538
  C     -275.981    -256.749      43.695
  N     -275.619    -255.744      42.699
  C     -276.441    -255.685      41.578
  O     -277.414    -256.422      41.414
  N     -276.087    -254.769      40.623
  C     -274.993    -253.954      40.661
  O     -274.689    -253.209      39.738
  C     -274.166    -254.052      41.880
  C     -274.508    -254.932      42.824
  O     -271.885    -257.633      48.878
  O     -270.895    -256.417      46.842
  H     -270.933    -257.783      49.025
  H     -277.763    -258.599      43.091
  H     -276.662    -254.722      39.798
  H     -273.294    -253.415      41.948
  H     -273.904    -255.036      43.718
  H     -277.011    -256.551      44.018
  H     -275.807    -258.231      42.056
  H     -273.719    -258.290      43.214
  H     -275.366    -258.503      45.799
  H     -273.025    -258.891      46.226
  H     -272.526    -257.519      45.206
  P     -274.509    -260.966      42.563
  C     -276.359    -261.696      40.847
  O     -276.024    -260.993      42.029
  O     -274.279    -262.435      43.155
  O     -273.499    -260.520      41.559
  H     -274.717    -262.571      44.012
  H     -277.407    -261.596      40.658
  H     -276.115    -262.731      40.966
  H     -275.808    -261.292      40.023

 6  7  8  9  10  11  12  13  14  15  16  27  31  32  33  34  35 0
 6-311+G(2d,p)
 ****
 36  37 0
 6-311+G(2d,p)
 ****
 1  2  3  4  5  17  18  19  20  21  22  23  24  25 0
 3-21G
 ****
 26  28  29  30  38  39  40  41  42  43  44  45 0
 3-21G
 ****


