%nproc=1
%NoSave
%Mem=1900MB
#P OB98/GEN NMR

erre ene a

0 1
  C     -305.265     -17.877      14.543
  O     -304.975     -16.481      14.391
  P     -303.752     -15.750      15.131
  C     -304.942     -14.134      16.751
  O     -304.195     -14.264      15.550
  C     -305.522     -12.723      16.911
  O     -304.457     -11.779      17.244
  C     -306.239     -12.184      15.660
  O     -307.378     -11.453      16.126
  C     -305.185     -11.259      15.067
  O     -305.706     -10.318      14.148
  C     -304.618     -10.653      16.355
  N     -303.360      -9.929      16.205
  C     -303.421      -8.599      15.770
  O     -304.490      -8.071      15.469
  N     -302.248      -7.889      15.668
  C     -301.121      -8.450      15.960
  N     -299.998      -7.687      15.845
  C     -301.006      -9.850      16.400
  C     -302.154     -10.521      16.503
  O     -302.473     -15.790      14.357
  O     -303.585     -16.509      16.531
  H     -302.639     -16.548      16.763
  H     -306.414      -9.821      14.595
  H     -300.044     -10.280      16.641
  H     -302.158     -11.549      16.850
  H     -305.369      -9.993      16.806
  H     -304.444     -11.866      14.540
  H     -306.577     -12.969      14.977
  H     -306.207     -12.735      17.767
  H     -300.117      -6.726      15.548
  H     -304.279     -14.340      17.596
  H     -299.070      -8.020      16.052
  H     -305.745     -14.879      16.756
  P     -308.845     -12.072      15.944
  C     -309.168     -11.716      13.383
  O     -309.531     -11.337      14.697
  O     -309.634     -11.420      17.182
  O     -308.948     -13.561      15.998
  H     -310.381     -11.995      17.422
  H     -310.075     -11.802      12.780
  H     -308.640     -12.670      13.357
  H     -308.530     -10.940      12.952
  H     -306.122     -18.129      13.955
  H     -305.464     -18.090      15.573
  H     -304.425     -18.453      14.215

 3  4  5  6  7  8  9  10  11  12  13  24  27  28  29  30  32 0
 6-311+G(2d,p)
 ****
 34  35 0
 6-311+G(2d,p)
 ****
 1  2  14  15  16  17  18  19  20  21  22  23  25  26 0
 3-21G
 ****
 31  33  36  37  38  39  40  41  42  43  44  45  46 0
 3-21G
 ****


