%nproc=1
%NoSave
%Mem=1900MB
#P OB98/GEN NMR

erre ene a

0 1
  C     -415.682     213.649      38.254
  O     -415.319     212.709      39.269
  P     -416.420     212.194      40.305
  C     -415.436     213.364      42.387
  O     -416.546     213.252      41.508
  C     -415.750     214.375      43.497
  O     -417.128     214.283      43.926
  C     -414.937     214.147      44.758
  O     -413.547     214.412      44.687
  C     -415.737     214.904      45.807
  O     -415.427     216.295      45.804
  C     -417.184     214.671      45.318
  N     -417.896     213.674      46.114
  C     -418.389     214.110      47.342
  O     -418.207     215.245      47.780
  N     -419.069     213.171      48.080
  C     -419.271     211.861      47.725
  O     -419.865     211.065      48.434
  C     -418.712     211.460      46.419
  C     -418.064     212.367      45.693
  O     -416.315     210.768      40.717
  O     -417.799     212.439      39.496
  H     -415.635     216.641      44.908
  H     -418.381     211.673      39.662
  H     -419.439     213.462      48.968
  H     -418.848     210.427      46.114
  H     -417.639     212.091      44.728
  H     -417.760     215.609      45.361
  H     -415.534     214.533      46.820
  H     -415.018     213.076      45.021
  H     -415.590     215.385      43.103
  H     -414.549     213.679      41.828
  H     -415.203     212.381      42.808
  P     -412.446     213.270      44.466
  C     -412.219     212.443      46.918
  O     -412.631     212.155      45.597
  O     -411.054     213.717      44.163
  O     -413.028     212.522      43.165
  H     -412.278     212.197      42.634
  H     -412.405     211.572      47.539
  H     -412.786     213.288      47.311
  H     -411.148     212.676      46.946
  H     -414.824     213.878      37.657
  H     -416.048     214.544      38.711
  H     -416.446     213.228      37.634

 3  4  5  6  7  8  9  10  11  12  13  23  28  29  30  31  32 0
 6-311+G(2d,p)
 ****
 33  34 0
 6-311+G(2d,p)
 ****
 1  2  14  15  16  17  18  19  20  21  22  24  25  26  27 0
 3-21G
 ****
 35  36  37  38  39  40  41  42  43  44  45 0
 3-21G
 ****


