%nproc=1
%NoSave
%Mem=1900MB
#P OB98/GEN NMR

erre ene a

0 1
  C      287.693     425.980    1354.040
  O      287.921     427.350    1353.641
  P      288.407     428.400    1354.770
  C      290.558     428.970    1353.440
  O      289.376     429.473    1354.068
  C      291.268     430.077    1352.641
  O      290.576     430.270    1351.359
  C      291.255     431.480    1353.324
  O      292.311     431.815    1354.208
  C      291.405     432.398    1352.093
  O      292.799     432.496    1351.737
  C      290.640     431.660    1350.985
  N      287.905     435.565    1349.128
  C      289.220     435.338    1349.190
  N      289.885     434.269    1349.682
  C      289.012     433.367    1350.186
  C      287.620     433.455    1350.193
  C      287.068     434.626    1349.630
  N      285.701     434.862    1349.579
  N      287.057     432.335    1350.770
  C      288.090     431.594    1351.121
  N      289.292     432.176    1350.777
  O      288.925     427.790    1356.043
  O      287.079     429.258    1355.032
  H      292.810     432.986    1350.890
  H      287.031     429.479    1355.998
  H      289.847     436.126    1348.772
  H      288.025     430.636    1351.639
  H      291.148     431.712    1350.017
  H      291.034     433.406    1352.306
  H      290.281     431.660    1353.807
  H      292.316     429.770    1352.441
  H      290.292     428.158    1352.762
  H      285.375     435.731    1349.215
  H      285.060     434.192    1350.010
  H      291.192     428.546    1354.210
  P      292.203     433.067    1355.228
  C      292.831     431.562    1357.305
  O      293.157     432.670    1356.466
  O      290.807     433.449    1355.578
  O      293.051     434.177    1354.446
  H      294.008     434.004    1354.395
  H      293.681     431.341    1357.948
  H      292.597     430.679    1356.708
  H      291.960     431.830    1357.945
  H      287.378     425.409    1353.192
  H      286.933     425.949    1354.793
  H      288.599     425.567    1354.431

 3  4  5  6  7  8  9  10  11  12  22  25  29  30  31  32 0
 6-311+G(2d,p)
 ****
 33  36  37 0
 6-311+G(2d,p)
 ****
 1  2  13  14  15  16  17  18  19  20  21  23  24  26 0
 3-21G
 ****
 27  28  34  35  38  39  40  41  42  43  44  45  46  47  48 0
 3-21G
 ****


