%nproc=1
%NoSave
%Mem=1900MB
#P OB98/GEN NMR

erre ene a

0 1
  C      104.920     -40.342     228.122
  O      105.607     -39.234     227.575
  H      105.638     -41.149     228.282
  H      104.151     -40.695     227.428
  H      104.468     -40.080     229.082
  P      104.770     -37.906     227.240
  C      102.539     -37.512     225.980
  O      103.593     -38.420     226.269
  C      102.260     -37.489     224.480
  O      101.389     -38.574     224.091
  C      101.552     -36.232     223.979
  O      102.386     -35.089     223.932
  C      101.135     -36.705     222.599
  O      102.276     -36.702     221.722
  C      100.664     -38.142     222.904
  N       99.222     -38.229     223.129
  C       98.417     -38.322     221.988
  O       98.914     -38.323     220.864
  N       97.049     -38.381     222.142
  C       96.533     -38.326     223.332
  N       95.178     -38.381     223.428
  C       97.345     -38.208     224.561
  C       98.665     -38.166     224.386
  O      105.560     -36.742     226.732
  O      103.962     -37.589     228.585
  H      102.580     -35.780     221.652
  H      103.434     -36.768     228.433
  H       96.865     -38.137     225.526
  H       99.325     -38.073     225.242
  H      100.938     -38.828     222.090
  H      100.376     -36.070     222.141
  H      100.647     -36.035     224.567
  H      103.219     -37.645     223.967
  H       94.648     -38.462     222.570
  H      102.830     -36.524     226.342
  H       94.688     -38.270     224.308
  H      101.627     -37.827     226.496
  P      101.704     -33.676     224.291
  C       99.621     -32.409     223.352
  O      100.609     -33.407     223.148
  O      102.863     -32.624     223.973
  O      101.178     -33.561     225.686
  H      103.324     -32.363     224.796
  H       98.978     -32.363     222.498
  H      100.096     -31.460     223.492
  H       99.044     -32.651     224.220

 6  7  8  9  10  11  12  13  14  15  16  26  30  31  32  33  35 0
 6-311+G(2d,p)
 ****
 37  38 0
 6-311+G(2d,p)
 ****
 1  2  3  4  5  17  18  19  20  21  22  23  24  25 0
 3-21G
 ****
 27  28  29  34  36  39  40  41  42  43  44  45  46 0
 3-21G
 ****


