%nproc=1
%NoSave
%Mem=1900MB
#P OB98/GEN NMR

erre ene a

0 1
  C       42.382     535.817      93.095
  O       42.845     536.865      93.918
  P       41.835     537.990      94.450
  C       42.185     539.422      92.339
  O       41.246     538.716      93.144
  C       41.682     540.831      92.049
  O       40.643     540.815      91.038
  C       41.036     541.516      93.246
  O       41.863     541.829      94.342
  C       40.311     542.671      92.565
  O       41.199     543.757      92.302
  C       39.849     542.011      91.243
  N       38.412     541.717      91.250
  C       37.801     541.622      90.001
  O       38.405     541.770      88.937
  N       36.460     541.384      90.017
  C       35.673     541.279      91.127
  O       34.460     541.112      91.063
  C       36.365     541.409      92.418
  C       37.685     541.620      92.418
  O       42.394     538.914      95.475
  O       40.567     537.140      94.962
  H       41.926     543.415      91.747
  H       40.147     536.594      94.273
  H       35.992     541.321      89.120
  H       35.773     541.318      93.315
  H       38.222     541.716      93.356
  H       40.055     542.673      90.395
  H       39.504     543.065      93.190
  H       40.256     540.846      93.643
  H       42.514     541.422      91.649
  H       42.314     538.890      91.393
  H       43.159     539.443      92.842
  P       41.320     541.944      95.851
  C       40.796     544.444      95.420
  O       40.347     543.212      95.936
  O       42.329     541.767      96.935
  O       40.277     540.719      95.907
  H       40.249     540.366      96.816
  H       40.035     545.205      95.609
  H       40.961     544.369      94.345
  H       41.722     544.753      95.916
  H       43.199     535.172      92.845
  H       41.963     536.225      92.199
  H       41.633     535.258      93.616

 3  4  5  6  7  8  9  10  11  12  13  23  28  29  30  31  32 0
 6-311+G(2d,p)
 ****
 33  34 0
 6-311+G(2d,p)
 ****
 1  2  14  15  16  17  18  19  20  21  22  24  25  26  27 0
 3-21G
 ****
 35  36  37  38  39  40  41  42  43  44  45 0
 3-21G
 ****


