%nproc=1
%NoSave
%Mem=1900MB
#P OB98/GEN NMR

erre ene a

0 1
  C     -223.070     -43.782    -224.687
  O     -224.017     -43.190    -225.553
  H     -223.269     -43.442    -223.666
  H     -222.060     -43.469    -224.966
  H     -223.143     -44.873    -224.713
  P     -224.066     -43.660    -227.086
  C     -226.281     -43.524    -228.414
  O     -225.217     -42.805    -227.801
  C     -227.639     -42.959    -227.971
  O     -227.803     -43.209    -226.537
  C     -227.798     -41.436    -228.192
  O     -229.195     -41.190    -228.430
  C     -227.362     -40.902    -226.837
  O     -227.663     -39.543    -226.669
  C     -228.073     -41.915    -225.930
  N     -227.648     -41.915    -224.532
  C     -228.563     -41.458    -223.586
  O     -229.700     -41.060    -223.836
  N     -228.117     -41.462    -222.282
  C     -226.890     -41.887    -221.852
  O     -226.562     -41.898    -220.666
  C     -225.971     -42.351    -222.901
  C     -226.388     -42.345    -224.170
  O     -224.143     -45.136    -227.311
  O     -222.725     -43.040    -227.713
  H     -222.048     -43.740    -227.793
  H     -227.226     -39.212    -225.852
  H     -228.766     -41.141    -221.581
  H     -224.983     -42.680    -222.594
  H     -225.731     -42.694    -224.968
  H     -229.157     -41.759    -225.977
  H     -226.273     -40.985    -226.737
  H     -227.212     -41.059    -229.039
  H     -228.439     -43.517    -228.486
  H     -226.202     -44.574    -228.107
  H     -226.181     -43.456    -229.496
  P     -229.781     -40.690    -229.838
  C     -231.804     -41.328    -231.324
  O     -231.261     -41.289    -230.006
  O     -228.884     -40.975    -231.008
  O     -230.021     -39.114    -229.667
  H     -229.966     -38.680    -230.535
  H     -232.788     -41.747    -231.292
  H     -231.180     -41.931    -231.949
  H     -231.852     -40.335    -231.720

 6  7  8  9  10  11  12  13  14  15  16  27  31  32  33  34  35 0
 6-311+G(2d,p)
 ****
 36  37 0
 6-311+G(2d,p)
 ****
 1  2  3  4  5  17  18  19  20  21  22  23  24  25 0
 3-21G
 ****
 26  28  29  30  38  39  40  41  42  43  44  45 0
 3-21G
 ****


