%nproc=1
%NoSave
%Mem=1900MB
#P OB98/GEN NMR

erre ene a

0 1
  C     -568.916    -700.499    -506.406
  O     -568.478    -699.409    -505.602
  P     -569.392    -698.085    -505.605
  C     -568.748    -697.445    -503.159
  O     -569.769    -697.801    -504.070
  C     -569.175    -697.834    -501.730
  O     -569.628    -699.202    -501.695
  C     -568.061    -697.712    -500.688
  O     -567.914    -696.371    -500.261
  C     -568.555    -698.658    -499.608
  O     -569.543    -698.019    -498.779
  C     -569.192    -699.785    -500.431
  N     -567.752    -704.371    -498.820
  C     -568.570    -703.425    -498.222
  N     -569.118    -703.775    -497.039
  N     -568.833    -702.253    -498.730
  C     -568.198    -702.030    -499.907
  C     -567.361    -702.881    -500.600
  C     -567.126    -704.193    -500.057
  O     -566.489    -705.099    -500.605
  N     -566.905    -702.300    -501.754
  C     -567.491    -701.117    -501.787
  N     -568.308    -700.914    -500.690
  O     -570.764    -698.581    -506.250
  O     -568.802    -696.907    -506.316
  H     -569.097    -697.446    -498.132
  H     -570.787    -698.345    -507.212
  H     -567.608    -705.260    -498.400
  H     -567.376    -700.378    -502.566
  H     -570.085    -700.205    -499.951
  H     -567.757    -698.979    -498.945
  H     -568.946    -704.649    -496.568
  H     -567.118    -698.094    -501.105
  H     -569.721    -703.107    -496.576
  H     -570.028    -697.189    -501.451
  H     -568.587    -696.363    -503.202
  H     -567.811    -697.967    -503.425
  P     -566.761    -695.492    -500.943
  C     -568.232    -693.666    -502.090
  O     -567.387    -694.808    -502.249
  O     -565.757    -696.603    -501.538
  O     -566.058    -694.566    -500.007
  H     -564.832    -696.283    -501.454
  H     -568.147    -693.041    -502.972
  H     -567.943    -693.097    -501.205
  H     -569.276    -694.012    -501.988
  H     -568.224    -701.310    -506.315
  H     -568.969    -700.189    -507.429
  H     -569.884    -700.817    -506.079

 3  4  5  6  7  8  9  10  11  12  23  26  30  31 0
 6-311+G(2d,p)
 ****
 33  35  36  37  38 0
 6-311+G(2d,p)
 ****
 1  2  13  14  15  16  17  18  19  20  21  22  24  25 0
 3-21G
 ****
 27  28  29  32  34  39  40  41  42  43  44  45  46  47  48  49 0
 3-21G
 ****


