%nproc=1
%NoSave
%Mem=1900MB
#P OB98/GEN NMR

erre ene a

0 1
  C       82.791     -55.889      14.077
  O       83.157     -56.519      15.306
  P       82.857     -55.771      16.690
  C       84.701     -53.974      16.541
  O       83.306     -54.235      16.560
  C       84.980     -52.463      16.503
  O       86.410     -52.226      16.595
  C       84.471     -51.792      15.219
  O       83.668     -50.639      15.470
  C       85.738     -51.557      14.416
  O       85.607     -50.512      13.466
  C       86.800     -51.369      15.507
  N       88.148     -51.673      15.018
  C       89.090     -50.657      15.115
  O       88.820     -49.524      15.514
  N       90.352     -50.963      14.680
  C       90.731     -52.135      14.096
  O       91.863     -52.344      13.679
  C       89.676     -53.151      13.960
  C       88.454     -52.876      14.420
  O       83.333     -56.466      17.921
  O       81.253     -55.656      16.692
  H       84.709     -50.562      13.072
  H       80.943     -55.806      17.606
  H       91.051     -50.242      14.761
  H       89.935     -54.084      13.482
  H       87.656     -53.600      14.322
  H       86.810     -50.336      15.869
  H       85.968     -52.474      13.858
  H       83.807     -52.458      14.658
  H       84.498     -52.022      17.381
  H       85.145     -54.437      15.659
  H       85.171     -54.452      17.407
  P       82.070     -50.639      15.511
  C       81.691     -50.264      12.975
  O       81.530     -51.123      14.085
  O       81.433     -49.397      16.035
  O       81.734     -51.877      16.473
  H       80.988     -51.640      17.053
  H       80.974     -50.552      12.203
  H       82.703     -50.374      12.574
  H       81.517     -49.221      13.250
  H       83.061     -56.522      13.258
  H       83.303     -54.954      13.989
  H       81.735     -55.720      14.064

 3  4  5  6  7  8  9  10  11  12  13  23  28  29  30  31  32 0
 6-311+G(2d,p)
 ****
 33  34 0
 6-311+G(2d,p)
 ****
 1  2  14  15  16  17  18  19  20  21  22  24  25  26  27 0
 3-21G
 ****
 35  36  37  38  39  40  41  42  43  44  45 0
 3-21G
 ****


