%nproc=1
%NoSave
%Mem=1900MB
#P OB98/GEN NMR

erre ene a

0 1
  C      -74.335     534.595    -344.705
  O      -75.489     535.022    -345.403
  P      -75.943     536.558    -345.340
  C      -76.658     536.880    -347.824
  O      -75.723     537.169    -346.806
  C      -77.084     538.154    -348.563
  O      -77.659     539.059    -347.593
  C      -75.942     538.921    -349.227
  O      -76.499     539.808    -350.200
  C      -75.392     539.719    -348.064
  O      -74.627     540.843    -348.497
  C      -76.672     540.060    -347.256
  N      -76.410     540.054    -345.805
  C      -75.420     540.914    -345.340
  O      -74.830     541.711    -346.067
  N      -75.073     540.766    -344.024
  C      -75.579     539.829    -343.172
  O      -75.051     539.510    -342.115
  C      -76.776     539.119    -343.652
  C      -77.116     539.240    -344.937
  O      -74.784     537.233    -344.466
  O      -77.291     536.789    -344.753
  H      -75.187     541.334    -349.145
  H      -75.062     537.300    -343.535
  H      -74.258     541.290    -343.725
  H      -77.301     538.477    -342.958
  H      -77.963     538.689    -345.332
  H      -77.063     541.047    -347.525
  H      -74.731     539.081    -347.472
  H      -75.178     538.285    -349.685
  H      -77.856     537.904    -349.299
  H      -77.524     536.377    -347.386
  H      -76.223     536.176    -348.547
  P      -75.613     540.151    -351.495
  C      -76.555     538.321    -353.026
  O      -75.435     538.776    -352.294
  O      -74.359     540.921    -351.241
  O      -76.635     540.970    -352.420
  H      -76.138     541.479    -353.086
  H      -76.203     537.741    -353.885
  H      -77.162     539.158    -353.389
  H      -77.166     537.678    -352.391
  H      -74.190     533.547    -344.863
  H      -74.460     534.784    -343.659
  H      -73.482     535.131    -345.065

 3  4  5  6  7  8  9  10  11  12  13  23  28  29  30  31  32 0
 6-311+G(2d,p)
 ****
 33  34 0
 6-311+G(2d,p)
 ****
 1  2  14  15  16  17  18  19  20  21  22  24  25  26  27 0
 3-21G
 ****
 35  36  37  38  39  40  41  42  43  44  45 0
 3-21G
 ****


