%nproc=1
%NoSave
%Mem=1900MB
#P OB98/GEN NMR

erre ene a

0 1
  C      118.008    -142.728     138.446
  O      118.048    -141.573     137.591
  P      117.115    -140.287     137.798
  C      118.001    -137.905     138.284
  O      117.950    -138.989     137.362
  C      119.420    -137.318     138.357
  O      120.251    -138.137     139.221
  C      120.180    -137.277     137.034
  O      119.701    -136.262     136.174
  C      121.606    -137.065     137.528
  O      121.883    -135.680     137.771
  C      121.626    -137.843     138.859
  N      122.421    -139.057     138.797
  C      123.741    -138.963     139.254
  O      124.202    -137.878     139.600
  N      124.504    -140.110     139.288
  C      124.029    -141.217     138.807
  N      124.824    -142.318     138.885
  C      122.687    -141.328     138.198
  C      121.946    -140.221     138.231
  O      116.515    -140.181     139.166
  O      115.975    -140.401     136.678
  H      115.175    -139.937     136.978
  H      121.704    -135.202     136.933
  H      122.347    -142.258     137.779
  H      120.946    -140.217     137.819
  H      122.003    -137.201     139.664
  H      122.349    -137.418     136.800
  H      120.101    -138.254     136.545
  H      119.352    -136.312     138.793
  H      125.734    -142.211     139.322
  H      117.719    -138.276     139.274
  H      124.541    -143.232     138.564
  H      117.279    -137.136     137.977
  P      119.408    -136.678     134.655
  C      118.224    -135.493     132.669
  O      118.983    -135.359     133.857
  O      118.048    -137.525     134.747
  O      120.494    -137.474     134.009
  H      118.086    -138.281     134.134
  H      117.631    -134.588     132.528
  H      117.557    -136.360     132.709
  H      118.907    -135.601     131.821
  H      118.721    -143.449     138.105
  H      117.028    -143.156     138.421
  H      118.245    -142.438     139.448

 3  4  5  6  7  8  9  10  11  12  13  24  27  28  29  30  32 0
 6-311+G(2d,p)
 ****
 34  35 0
 6-311+G(2d,p)
 ****
 1  2  14  15  16  17  18  19  20  21  22  23  25  26 0
 3-21G
 ****
 31  33  36  37  38  39  40  41  42  43  44  45  46 0
 3-21G
 ****


