%nproc=1
%NoSave
%Mem=1900MB
#P OB98/GEN NMR

erre ene a

0 1
  C      -35.106      41.752     -26.650
  O      -35.201      43.115     -26.285
  H      -34.053      41.458     -26.634
  H      -35.497      41.596     -27.658
  H      -35.654      41.128     -25.939
  P      -36.654      43.788     -26.239
  C      -35.163      45.839     -26.727
  O      -36.405      45.372     -26.217
  C      -34.880      47.244     -26.207
  O      -35.825      48.183     -26.757
  C      -34.973      47.373     -24.688
  O      -33.776      46.915     -24.078
  C      -35.178      48.873     -24.552
  O      -33.925      49.555     -24.750
  C      -36.132      49.161     -25.725
  N      -40.185      51.623     -23.938
  C      -38.878      52.048     -24.070
  N      -38.605      53.291     -23.622
  N      -37.923      51.312     -24.577
  C      -38.330      50.067     -24.915
  C      -39.591      49.527     -24.817
  C      -40.652      50.370     -24.307
  O      -41.828      50.039     -24.190
  N      -39.606      48.210     -25.199
  C      -38.364      47.967     -25.565
  N      -37.545      49.058     -25.398
  O      -37.574      43.306     -25.158
  O      -37.251      43.527     -27.699
  H      -33.496      49.608     -23.876
  H      -37.773      42.705     -27.724
  H      -40.873      52.232     -23.522
  H      -38.005      47.024     -25.960
  H      -35.972      50.155     -26.157
  H      -35.559      49.167     -23.574
  H      -39.220      53.775     -22.977
  H      -35.856      46.864     -24.289
  H      -37.643      53.601     -23.662
  H      -33.886      47.540     -26.566
  H      -35.235      45.841     -27.819
  H      -34.353      45.166     -26.429
  P      -33.818      45.994     -22.764
  C      -33.473      47.805     -20.953
  O      -32.885      46.749     -21.700
  O      -33.470      44.562     -22.992
  O      -35.279      46.216     -22.163
  H      -35.956      45.593     -22.528
  H      -32.746      48.218     -20.286
  H      -34.299      47.426     -20.389
  H      -33.817      48.566     -21.622

 6  7  8  9  10  11  12  13  14  15  26  29  33  34 0
 6-311+G(2d,p)
 ****
 36  38  39  40  41 0
 6-311+G(2d,p)
 ****
 1  2  3  4  5  16  17  18  19  20  21  22  23  24  25 0
 3-21G
 ****
 27  28  30  31  32  35  37  42  43  44  45  46  47 0
 3-21G
 ****
 48  49 0
 3-21G
 ****


