%nproc=1
%NoSave
%Mem=1900MB
#P OB98/GEN NMR

erre ene a

0 1
  C     -311.030      44.282       5.074
  O     -312.440      44.303       4.903
  P     -313.142      42.948       4.396
  C     -312.963      41.489       2.258
  O     -312.473      42.615       2.979
  C     -312.609      41.603       0.783
  O     -313.254      42.758       0.212
  C     -311.125      41.792       0.502
  O     -310.416      40.559       0.539
  C     -311.164      42.354      -0.917
  O     -311.311      41.280      -1.861
  C     -312.435      43.220      -0.886
  N     -310.895      47.495      -3.126
  C     -311.054      46.229      -3.653
  N     -310.790      46.087      -4.970
  N     -311.436      45.194      -2.953
  C     -311.699      45.492      -1.656
  C     -311.580      46.710      -1.019
  C     -311.107      47.836      -1.794
  O     -310.882      48.967      -1.366
  N     -311.956      46.619       0.299
  C     -312.343      45.367       0.447
  N     -312.176      44.635      -0.704
  O     -314.618      43.432       4.004
  O     -313.170      41.838       5.394
  H     -312.032      40.708      -1.539
  H     -315.240      42.679       4.068
  H     -310.618      48.260      -3.716
  H     -312.742      44.952       1.361
  H     -313.024      43.090      -1.804
  H     -310.254      42.898      -1.186
  H     -310.620      46.870      -5.588
  H     -310.683      42.531       1.173
  H     -310.935      45.172      -5.384
  H     -312.989      40.711       0.267
  H     -314.050      41.438       2.360
  H     -312.530      40.580       2.690
  P     -308.919      40.611       1.113
  C     -306.788      41.825       0.251
  O     -308.037      41.234      -0.065
  O     -308.487      39.068       1.147
  O     -308.796      41.263       2.448
  H     -307.797      38.925       1.825
  H     -306.284      41.287       1.059
  H     -306.946      42.868       0.554
  H     -306.151      41.804      -0.634
  H     -310.697      45.241       5.412
  H     -310.561      44.051       4.141
  H     -310.770      43.538       5.798

 3  4  5  6  7  8  9  10  11  12  23  26  30  31  33  0
 6-311+G(2d,p)
 ****
 35  36  37  38 0
 6-311+G(2d,p)
 ****
 1  2  13  14  15  16  17  18  19  20  21  22  24  25  27  28  29 0
 3-21G
 ****
 32  34  39  40  41  42  43  44  45  46  47  48  49 0
 3-21G
 ****


