%nproc=1
%NoSave
%Mem=1900MB
#P OB98/GEN NMR

erre ene a

0 1
  C     -365.154    -247.615     136.733
  O     -363.915    -248.281     136.851
  H     -365.070    -246.588     137.098
  H     -365.441    -247.588     135.677
  H     -365.928    -248.146     137.293
  P     -363.314    -248.440     138.331
  C     -361.464    -250.038     139.211
  O     -362.587    -249.872     138.357
  C     -361.091    -251.515     139.279
  O     -362.182    -252.281     139.834
  C     -360.784    -252.151     137.926
  O     -359.465    -251.870     137.487
  C     -360.957    -253.622     138.264
  O     -359.798    -254.094     138.976
  C     -362.175    -253.588     139.193
  N     -365.325    -257.047     137.120
  C     -364.124    -257.170     137.719
  N     -363.346    -256.198     138.241
  C     -363.926    -254.997     138.096
  C     -365.144    -254.717     137.502
  C     -365.865    -255.816     137.000
  N     -367.088    -255.694     136.375
  N     -365.393    -253.357     137.510
  C     -364.356    -252.831     138.132
  N     -363.438    -253.780     138.500
  O     -364.612    -248.678     139.240
  O     -362.476    -247.306     138.816
  H     -359.046    -254.040     138.356
  H     -364.413    -248.466     140.169
  H     -363.731    -258.182     137.790
  H     -364.226    -251.780     138.339
  H     -362.123    -254.343     139.985
  H     -361.069    -254.253     137.380
  H     -361.529    -251.864     137.171
  H     -360.232    -251.615     139.959
  H     -361.721    -249.685     140.214
  H     -367.427    -256.509     135.889
  H     -367.421    -254.769     136.148
  H     -360.627    -249.449     138.824
  P     -359.014    -252.488     136.078
  C     -356.872    -252.243     134.619
  O     -357.470    -252.096     135.902
  O     -359.759    -251.559     135.011
  O     -359.339    -253.934     135.893
  H     -359.912    -252.040     134.179
  H     -355.846    -251.942     134.667
  H     -357.391    -251.630     133.911
  H     -356.929    -253.267     134.314

 6  7  8  9  10  11  12  13  14  15  25  28  32  33  34  35 0
 6-311+G(2d,p)
 ****
 36  39  40 0
 6-311+G(2d,p)
 ****
 1  2  3  4  5  16  17  18  19  20  21  22  23  24 0
 3-21G
 ****
 26  27  29  30  31  37  38  41  42  43  44  45  46  47 0
 3-21G
 ****
 48 0
 3-21G
 ****


