%nproc=1
%NoSave
%Mem=1900MB
#P OB98/GEN NMR

erre ene a

0 1
  C     -575.647     445.886    -409.598
  O     -575.125     447.155    -409.253
  H     -575.677     445.266    -408.700
  H     -575.004     445.410    -410.344
  H     -576.663     445.975    -409.988
  P     -575.277     448.362    -410.293
  C     -572.902     447.953    -411.227
  O     -574.294     448.052    -411.518
  C     -572.148     447.306    -412.396
  O     -572.244     448.177    -413.558
  C     -570.657     447.143    -412.077
  O     -570.078     446.042    -412.779
  C     -570.054     448.439    -412.597
  O     -568.666     448.331    -412.893
  C     -570.924     448.701    -413.830
  N     -568.480     452.871    -415.444
  C     -567.961     451.661    -415.027
  N     -566.615     451.545    -415.051
  N     -568.695     450.666    -414.611
  C     -570.017     450.944    -414.576
  C     -570.655     452.109    -414.928
  C     -569.832     453.198    -415.427
  O     -570.241     454.298    -415.790
  N     -572.012     452.021    -414.745
  C     -572.196     450.814    -414.278
  N     -571.024     450.106    -414.172
  O     -574.540     449.588    -409.556
  O     -576.684     448.714    -410.672
  H     -568.357     449.191    -413.214
  H     -574.864     450.435    -409.912
  H     -567.875     453.593    -415.775
  H     -573.169     450.388    -413.998
  H     -570.533     448.167    -414.705
  H     -570.164     449.198    -411.830
  H     -566.011     452.353    -415.170
  H     -570.468     447.026    -411.013
  H     -566.208     450.802    -414.465
  H     -572.625     446.355    -412.672
  H     -572.810     447.347    -410.327
  H     -572.494     448.934    -411.000
  P     -569.808     444.682    -411.983
  C     -567.282     445.274    -411.448
  O     -568.560     444.852    -411.008
  O     -569.269     443.676    -413.113
  O     -571.016     444.131    -411.277
  H     -569.900     442.939    -413.242
  H     -566.612     445.312    -410.614
  H     -567.359     446.246    -411.888
  H     -566.909     444.583    -412.174

 6  7  8  9  10  11  12  13  14  15  26  29  33  34 0
 6-311+G(2d,p)
 ****
 36  38  39  40  41 0
 6-311+G(2d,p)
 ****
 1  2  3  4  5  16  17  18  19  20  21  22  23  24  25 0
 3-21G
 ****
 27  28  30  31  32  35  37  42  43  44  45  46  47 0
 3-21G
 ****
 48  49 0
 3-21G
 ****


