%nproc=1
%NoSave
%Mem=1900MB
#P OB98/GEN NMR

erre ene a

0 1
  C       29.227    -163.933     -69.987
  O       28.896    -162.709     -69.366
  H       30.024    -164.416     -69.415
  H       29.583    -163.755     -71.004
  H       28.357    -164.595     -70.008
  P       27.741    -161.836     -70.056
  C       29.114    -159.670     -70.447
  O       28.076    -160.300     -69.711
  C       29.696    -158.500     -69.654
  O       28.652    -157.509     -69.441
  C       30.245    -158.896     -68.276
  O       31.424    -158.128     -68.010
  C       29.144    -158.455     -67.328
  O       29.627    -158.238     -66.006
  C       28.651    -157.197     -68.034
  N       26.202    -154.578     -64.504
  C       27.557    -154.747     -64.717
  N       28.392    -154.128     -63.855
  N       28.050    -155.466     -65.690
  C       27.101    -156.008     -66.491
  C       25.735    -155.926     -66.381
  C       25.199    -155.145     -65.286
  O       24.011    -154.977     -65.031
  N       25.115    -156.648     -67.371
  C       26.106    -157.163     -68.077
  N       27.329    -156.800     -67.583
  O       26.454    -162.142     -69.156
  O       27.498    -162.116     -71.501
  H       30.375    -157.606     -66.060
  H       25.636    -162.081     -69.687
  H       25.876    -154.023     -63.733
  H       25.994    -157.800     -68.944
  H       29.314    -156.338     -67.871
  H       28.355    -159.216     -67.285
  H       28.084    -153.532     -63.103
  H       30.473    -159.961     -68.186
  H       29.390    -154.227     -64.002
  H       30.470    -158.015     -70.261
  H       28.707    -159.300     -71.395
  H       29.901    -160.402     -70.658
  P       32.825    -158.717     -68.521
  C       33.859    -159.026     -66.160
  O       33.951    -158.390     -67.425
  O       33.198    -157.746     -69.740
  O       32.756    -160.141     -68.966
  H       33.092    -158.221     -70.583
  H       34.674    -158.711     -65.542
  H       33.900    -160.087     -66.290
  H       32.934    -158.760     -65.693

 6  7  8  9  10  11  12  13  14  15  26  29  33  34 0
 6-311+G(2d,p)
 ****
 36  38  39  40  41 0
 6-311+G(2d,p)
 ****
 1  2  3  4  5  16  17  18  19  20  21  22  23  24  25 0
 3-21G
 ****
 27  28  30  31  32  35  37  42  43  44  45  46  47 0
 3-21G
 ****
 48  49 0
 3-21G
 ****


