%nproc=1
%NoSave
%Mem=1900MB
#P OB98/GEN NMR

erre ene a

0 1
  C     -192.436    -595.388    -286.081
  O     -192.597    -594.136    -286.753
  P     -193.454    -593.022    -285.977
  C     -195.679    -593.506    -287.207
  O     -194.988    -593.499    -285.973
  C     -197.155    -593.883    -287.012
  O     -197.851    -592.852    -286.249
  C     -197.924    -594.070    -288.331
  O     -198.881    -595.122    -288.110
  C     -198.626    -592.732    -288.480
  O     -199.685    -592.754    -289.423
  C     -199.008    -592.472    -287.029
  N     -202.885    -589.150    -287.051
  C     -202.811    -590.458    -287.390
  N     -201.738    -591.275    -287.362
  C     -200.653    -590.610    -286.921
  C     -200.569    -589.281    -286.541
  C     -201.755    -588.532    -286.614
  N     -201.836    -587.195    -286.296
  N     -199.274    -588.962    -286.169
  C     -198.580    -590.062    -286.397
  N     -199.387    -591.102    -286.764
  O     -193.438    -591.771    -286.975
  O     -192.899    -592.679    -284.633
  H     -200.111    -591.877    -289.470
  H     -192.770    -591.121    -286.704
  H     -203.747    -590.905    -287.731
  H     -197.509    -590.161    -286.301
  H     -199.849    -593.109    -286.703
  H     -197.902    -591.979    -288.828
  H     -197.287    -594.336    -289.182
  H     -197.197    -594.811    -286.426
  H     -195.216    -594.225    -287.896
  H     -202.731    -586.740    -286.393
  H     -201.020    -586.698    -285.991
  H     -195.582    -592.524    -287.679
  P     -198.374    -596.646    -288.151
  C     -198.957    -597.046    -290.617
  O     -197.913    -596.879    -289.672
  O     -199.777    -597.421    -288.124
  O     -197.433    -597.056    -287.070
  H     -200.390    -597.060    -288.795
  H     -198.504    -597.109    -291.614
  H     -199.628    -596.180    -290.588
  H     -199.506    -597.965    -290.415
  H     -191.852    -596.047    -286.689
  H     -193.397    -595.824    -285.904
  H     -191.939    -595.230    -285.147

 3  4  5  6  7  8  9  10  11  12  22  25  29  30  31  32 0
 6-311+G(2d,p)
 ****
 33  36  37 0
 6-311+G(2d,p)
 ****
 1  2  13  14  15  16  17  18  19  20  21  23  24  26 0
 3-21G
 ****
 27  28  34  35  38  39  40  41  42  43  44  45  46  47  48 0
 3-21G
 ****


