%nproc=1
%NoSave
%Mem=1900MB
#P OB98/GEN NMR

erre ene a

0 1
  C      224.587    -590.355     141.529
  O      224.866    -591.692     141.921
  H      223.527    -590.152     141.705
  H      224.790    -590.213     140.464
  H      225.185    -589.655     142.117
  P      226.327    -592.282     141.612
  C      227.887    -592.023     139.563
  O      226.544    -592.081     140.040
  C      228.082    -593.013     138.419
  O      227.477    -592.509     137.210
  C      229.544    -593.255     138.079
  O      230.154    -594.103     139.031
  C      229.423    -593.826     136.678
  O      229.066    -595.213     136.712
  C      228.268    -592.975     136.096
  N      228.745    -591.852     135.291
  C      229.232    -592.180     134.016
  O      229.241    -593.349     133.631
  N      229.720    -591.164     133.226
  C      229.701    -589.940     133.655
  N      230.211    -588.986     132.832
  C      229.187    -589.558     134.986
  C      228.731    -590.552     135.742
  O      226.614    -593.668     142.105
  O      227.315    -591.197     142.252
  H      229.636    -595.620     137.393
  H      227.503    -591.417     143.184
  H      229.188    -588.526     135.301
  H      228.328    -590.354     136.733
  H      227.606    -593.592     135.474
  H      230.359    -593.739     136.127
  H      230.078    -592.300     138.009
  H      227.575    -593.953     138.682
  H      230.560    -589.294     131.926
  H      228.538    -592.290     140.408
  H      230.164    -587.993     133.015
  H      228.134    -591.010     139.233
  P      231.709    -593.937     139.394
  C      233.883    -593.665     138.033
  O      232.459    -593.792     137.982
  O      232.267    -594.975     140.312
  O      231.786    -592.457     140.001
  H      231.406    -592.413     140.907
  H      234.269    -593.576     137.039
  H      234.302    -594.531     138.502
  H      234.143    -592.793     138.596

 6  7  8  9  10  11  12  13  14  15  16  26  30  31  32  33  35 0
 6-311+G(2d,p)
 ****
 37  38 0
 6-311+G(2d,p)
 ****
 1  2  3  4  5  17  18  19  20  21  22  23  24  25 0
 3-21G
 ****
 27  28  29  34  36  39  40  41  42  43  44  45  46 0
 3-21G
 ****


