%nproc=1
%NoSave
%Mem=1900MB
#P OB98/GEN NMR

erre ene a

0 1
  C     -776.439    -456.136    -602.444
  O     -775.768    -456.858    -603.475
  P     -776.646    -457.564    -604.615
  C     -775.553    -456.527    -606.711
  O     -776.717    -456.594    -605.888
  C     -774.976    -455.104    -606.725
  O     -774.451    -454.788    -605.414
  C     -773.813    -454.880    -607.701
  O     -774.115    -454.490    -609.034
  C     -773.100    -453.703    -607.049
  O     -773.742    -452.470    -607.437
  C     -773.300    -453.935    -605.557
  N     -769.102    -453.024    -602.784
  C     -770.056    -452.199    -603.255
  N     -771.148    -452.527    -603.990
  C     -771.198    -453.852    -604.202
  C     -770.290    -454.810    -603.777
  C     -769.197    -454.351    -603.029
  N     -768.213    -455.181    -602.548
  N     -770.676    -456.067    -604.201
  C     -771.783    -455.866    -604.888
  N     -772.147    -454.552    -604.910
  O     -777.950    -458.139    -604.169
  O     -775.661    -458.726    -605.128
  H     -773.322    -451.760    -606.913
  H     -776.193    -459.524    -605.338
  H     -769.945    -451.151    -603.018
  H     -772.341    -456.639    -605.379
  H     -773.516    -453.004    -605.020
  H     -772.057    -453.619    -607.367
  H     -773.154    -455.754    -607.718
  H     -775.790    -454.394    -606.949
  H     -775.815    -456.832    -607.738
  H     -767.434    -454.767    -602.059
  H     -768.236    -456.166    -602.774
  H     -774.843    -457.263    -606.327
  P     -774.450    -455.574    -610.173
  C     -776.602    -454.624    -611.314
  O     -776.039    -455.508    -610.369
  O     -773.915    -456.940    -609.916
  O     -773.894    -454.880    -611.496
  H     -774.385    -454.083    -611.775
  H     -777.661    -454.893    -611.458
  H     -776.096    -454.704    -612.285
  H     -776.540    -453.602    -610.958
  H     -775.718    -455.728    -601.767
  H     -777.093    -456.796    -601.914
  H     -777.010    -455.342    -602.878

 3  4  5  6  7  8  9  10  11  12  22  25  29  30  31  32 0
 6-311+G(2d,p)
 ****
 33  36  37 0
 6-311+G(2d,p)
 ****
 1  2  13  14  15  16  17  18  19  20  21  23  24  26 0
 3-21G
 ****
 27  28  34  35  38  39  40  41  42  43  44  45  46  47  48 0
 3-21G
 ****


