%nproc=1
%NoSave
%Mem=1900MB
#P OB98/GEN NMR

erre ene a

0 1
  C     -226.942       0.332    -153.535
  O     -226.410      -0.148    -152.316
  P     -227.294      -1.051    -151.337
  C     -228.311       1.056    -150.295
  O     -228.585      -0.191    -150.919
  C     -228.172       0.900    -148.781
  O     -228.257       2.212    -148.159
  C     -229.240       0.014    -148.127
  O     -228.606      -0.657    -147.032
  C     -230.236       1.029    -147.593
  O     -231.059       0.505    -146.558
  C     -229.286       2.135    -147.150
  N     -232.319       5.014    -144.210
  C     -231.885       3.743    -144.079
  N     -231.101       3.038    -144.919
  C     -230.759       3.779    -145.985
  C     -231.149       5.077    -146.270
  C     -231.958       5.713    -145.312
  N     -232.382       7.020    -145.413
  N     -230.640       5.475    -147.493
  C     -229.955       4.438    -147.930
  N     -229.947       3.416    -147.023
  O     -226.557      -1.661    -150.191
  O     -227.906      -2.178    -152.295
  H     -231.601       1.231    -146.196
  H     -227.452      -3.029    -152.136
  H     -232.206       3.224    -143.179
  H     -229.455       4.374    -148.885
  H     -228.804       1.907    -146.191
  H     -230.889       1.365    -148.406
  H     -229.699      -0.708    -148.810
  H     -227.168       0.510    -148.569
  H     -229.141       1.734    -150.513
  H     -232.843       7.415    -144.608
  H     -231.917       7.637    -146.075
  H     -227.394       1.487    -150.714
  P     -228.826      -2.232    -146.826
  C     -230.644      -1.882    -145.058
  O     -230.337      -2.419    -146.332
  O     -227.791      -2.918    -145.998
  O     -228.861      -2.805    -148.323
  H     -228.712      -3.769    -148.307
  H     -230.310      -2.576    -144.281
  H     -231.725      -1.751    -144.979
  H     -230.156      -0.914    -144.910
  H     -226.201       0.912    -154.044
  H     -227.798       0.942    -153.335
  H     -227.230      -0.496    -154.149

 3  4  5  6  7  8  9  10  11  12  22  25  29  30  31  32 0
 6-311+G(2d,p)
 ****
 33  36  37 0
 6-311+G(2d,p)
 ****
 1  2  13  14  15  16  17  18  19  20  21  23  24  26 0
 3-21G
 ****
 27  28  34  35  38  39  40  41  42  43  44  45  46  47  48 0
 3-21G
 ****


