%nproc=1
%NoSave
%Mem=1900MB
#P OB98/GEN NMR

erre ene a

0 1
  C       25.788     153.147     223.250
  O       24.876     153.091     222.166
  P       24.760     151.771     221.261
  C       25.865     150.990     219.073
  O       25.985     151.818     220.225
  C       27.156     151.007     218.256
  O       28.250     150.569     219.098
  C       27.120     150.089     217.039
  O       27.849     150.705     215.972
  C       27.875     148.849     217.480
  O       28.448     148.159     216.354
  C       28.890     149.448     218.460
  N       31.600     145.200     219.465
  C       31.424     145.904     218.327
  N       30.670     147.009     218.124
  C       30.103     147.407     219.276
  C       30.194     146.796     220.517
  C       30.986     145.634     220.589
  N       31.172     144.924     221.759
  N       29.446     147.479     221.456
  C       28.934     148.495     220.799
  N       29.308     148.502     219.479
  O       23.428     151.549     220.634
  O       25.161     150.575     222.244
  H       28.926     147.381     216.708
  H       24.609     149.789     222.067
  H       31.958     145.529     217.455
  H       28.278     149.244     221.222
  H       29.785     149.816     217.940
  H       27.189     148.159     217.984
  H       26.101     149.859     216.711
  H       27.366     152.044     217.957
  H       25.044     151.374     218.459
  H       31.851     144.179     221.742
  H       30.860     145.342     222.624
  H       25.620     149.966     219.383
  P       27.045     150.891     214.587
  C       25.986     149.131     212.985
  O       26.400     149.454     214.295
  O       27.900     151.487     213.518
  O       25.822     151.816     215.058
  H       25.639     151.707     216.017
  H       25.540     148.132     212.994
  H       26.847     149.118     212.309
  H       25.243     149.848     212.629
  H       25.717     154.102     223.727
  H       26.784     153.003     222.886
  H       25.551     152.378     223.955

 3  4  5  6  7  8  9  10  11  12  22  25  29  30  31  32 0
 6-311+G(2d,p)
 ****
 33  36  37 0
 6-311+G(2d,p)
 ****
 1  2  13  14  15  16  17  18  19  20  21  23  24  26 0
 3-21G
 ****
 27  28  34  35  38  39  40  41  42  43  44  45  46  47  48 0
 3-21G
 ****


