%nproc=1
%NoSave
%Mem=1900MB
#P OB98/GEN NMR

erre ene a

0 1
  C      328.688    -416.240     -55.647
  O      328.982    -417.616     -55.599
  P      328.241    -418.651     -54.643
  C      327.105    -420.005     -56.571
  O      326.942    -419.208     -55.403
  C      326.600    -421.434     -56.335
  O      327.470    -422.076     -55.370
  C      325.180    -421.442     -55.736
  O      324.325    -422.434     -56.290
  C      325.449    -421.504     -54.239
  O      324.341    -421.970     -53.485
  C      326.704    -422.370     -54.181
  N      329.707    -424.523     -50.692
  C      329.241    -425.048     -51.881
  N      329.445    -426.373     -52.064
  N      328.593    -424.347     -52.777
  C      328.363    -423.069     -52.400
  C      328.779    -422.436     -51.251
  C      329.522    -423.213     -50.287
  O      329.860    -422.819     -49.176
  N      328.306    -421.153     -51.177
  C      327.567    -421.016     -52.260
  N      327.547    -422.169     -53.019
  O      328.099    -418.256     -53.208
  O      329.240    -419.921     -54.706
  H      323.641    -421.288     -53.536
  H      329.211    -420.348     -53.827
  H      330.132    -425.135     -50.004
  H      327.008    -420.132     -52.529
  H      326.459    -423.433     -54.194
  H      325.660    -420.484     -53.898
  H      329.808    -426.964     -51.334
  H      324.665    -420.505     -55.966
  H      328.899    -426.826     -52.795
  H      326.663    -421.999     -57.271
  H      328.180    -420.011     -56.788
  H      326.594    -419.546     -57.422
  P      322.783    -422.315     -56.681
  C      322.597    -421.206     -58.991
  O      322.589    -421.008     -57.590
  O      322.038    -421.919     -55.325
  O      322.188    -423.560     -57.253
  H      321.184    -422.393     -55.268
  H      322.733    -420.237     -59.476
  H      321.646    -421.636     -59.305
  H      323.419    -421.874     -59.279
  H      329.322    -415.765     -56.366
  H      328.854    -415.806     -54.683
  H      327.665    -416.104     -55.928

 3  4  5  6  7  8  9  10  11  12  23  26  30  31 0
 6-311+G(2d,p)
 ****
 33  35  36  37  38 0
 6-311+G(2d,p)
 ****
 1  2  13  14  15  16  17  18  19  20  21  22  24  25 0
 3-21G
 ****
 27  28  29  32  34  39  40  41  42  43  44  45  46  47  48  49 0
 3-21G
 ****


