%nproc=1
%NoSave
%Mem=1900MB
#P OB98/GEN NMR

erre ene a

0 1
  C     -158.943     -50.114     128.318
  O     -157.532     -50.049     128.340
  H     -159.264     -50.489     127.342
  H     -159.368     -49.116     128.467
  H     -159.306     -50.793     129.094
  P     -156.854     -49.558     129.710
  C     -156.669     -47.224     130.843
  O     -157.414     -48.080     129.982
  C     -157.605     -46.221     131.510
  O     -158.584     -46.930     132.303
  C     -156.912     -45.264     132.474
  O     -156.262     -44.205     131.793
  C     -158.085     -44.805     133.329
  O     -158.811     -43.740     132.703
  C     -158.960     -46.064     133.397
  N     -160.222     -45.989     138.336
  C     -160.572     -45.193     137.303
  N     -160.205     -45.293     136.007
  C     -159.400     -46.353     135.824
  C     -158.952     -47.248     136.782
  C     -159.401     -47.040     138.096
  N     -159.017     -47.829     139.156
  N     -158.099     -48.176     136.216
  C     -158.041     -47.853     134.940
  N     -158.815     -46.763     134.658
  O     -155.328     -49.316     129.284
  O     -156.972     -50.507     130.855
  H     -158.899     -43.979     131.760
  H     -154.802     -50.112     129.487
  H     -161.229     -44.364     137.549
  H     -157.452     -48.367     134.190
  H     -160.026     -45.834     133.275
  H     -157.751     -44.440     134.301
  H     -156.203     -45.810     133.109
  H     -158.137     -45.668     130.726
  H     -155.919     -46.684     130.257
  H     -156.160     -47.837     131.596
  H     -159.360     -47.606     140.075
  H     -158.321     -48.547     139.003
  P     -154.779     -43.803     132.244
  C     -153.766     -42.823     134.429
  O     -154.896     -42.920     133.578
  O     -154.330     -42.748     131.126
  O     -153.827     -44.948     132.344
  H     -153.756     -43.176     130.465
  H     -154.004     -42.204     135.269
  H     -152.949     -42.393     133.889
  H     -153.493     -43.799     134.772

 6  7  8  9  10  11  12  13  14  15  25  28  32  33  34  35 0
 6-311+G(2d,p)
 ****
 36  37  40 0
 6-311+G(2d,p)
 ****
 1  2  3  4  5  16  17  18  19  20  21  22  23  24 0
 3-21G
 ****
 26  27  29  30  31  38  39 41  42  43  44  45  46  47  48 0
 3-21G
 ****


