%nproc=1
%NoSave
%Mem=1900MB
#P OB98/GEN NMR

erre ene a

0 1
  C       44.104     -68.472      -1.006
  O       43.661     -68.238       0.316
  H       43.355     -69.075      -1.527
  H       45.052     -69.017      -0.998
  H       44.227     -67.524      -1.536
  P       44.680     -67.452       1.279
  C       45.617     -69.828       1.814
  O       45.899     -68.483       1.456
  C       46.909     -70.639       1.830
  O       47.602     -70.517       0.569
  C       47.911     -70.193       2.890
  O       47.591     -70.667       4.187
  C       49.178     -70.832       2.351
  O       49.161     -72.245       2.629
  C       49.030     -70.561       0.836
  N       49.673     -69.317       0.409
  C       51.060     -69.238       0.577
  O       51.686     -70.175       1.072
  N       51.706     -68.080       0.211
  C       51.030     -67.092      -0.289
  N       51.719     -65.966      -0.621
  C       49.571     -67.140      -0.499
  C       48.965     -68.267      -0.132
  O       43.965     -67.509       2.710
  O       45.072     -66.080       0.840
  H       49.043     -72.343       3.591
  H       44.576     -67.157       3.403
  H       49.049     -66.287      -0.909
  H       47.892     -68.373      -0.255
  H       49.444     -71.390       0.248
  H       50.087     -70.427       2.800
  H       48.041     -69.105       2.891
  H       46.642     -71.699       1.954
  H       52.706     -65.940      -0.408
  H       44.918     -70.242       1.080
  H       51.258     -65.092      -0.844
  H       45.154     -69.864       2.807
  P       47.679     -69.623       5.404
  C       49.622     -70.931       6.526
  O       49.176     -69.699       5.980
  O       46.811     -70.326       6.547
  O       47.184     -68.244       5.091
  H       46.286     -69.672       7.047
  H       50.631     -70.826       6.866
  H       49.576     -71.692       5.775
  H       48.995     -71.204       7.349

 6  7  8  9  10  11  12  13  14  15  16  26  30  31  32  33  35 0
 6-311+G(2d,p)
 ****
 37  38 0
 6-311+G(2d,p)
 ****
 1  2  3  4  5  17  18  19  20  21  22  23  24  25 0
 3-21G
 ****
 27  28  29  34  36  39  40  41  42  43  44  45  46 0
 3-21G
 ****


