%nproc=1
%NoSave
%Mem=1900MB
#P OB98/GEN NMR

erre ene a

0 1
  C     1372.529    -925.205     301.817
  O     1373.114    -925.737     302.992
  P     1374.390    -926.739     302.965
  C     1375.948    -925.854     304.870
  O     1375.650    -925.928     303.481
  C     1375.631    -924.453     305.486
  O     1374.217    -924.163     305.306
  C     1375.881    -924.456     306.973
  O     1377.190    -924.246     307.477
  C     1374.820    -923.505     307.560
  O     1375.333    -922.171     307.717
  C     1373.702    -923.544     306.471
  N     1369.096    -923.180     308.669
  C     1370.018    -922.219     308.472
  N     1369.722    -920.979     308.892
  N     1371.171    -922.399     307.838
  C     1371.407    -923.735     307.518
  C     1370.571    -924.778     307.700
  C     1369.234    -924.535     308.320
  O     1368.396    -925.376     308.494
  N     1371.128    -925.951     307.256
  C     1372.307    -925.598     306.814
  N     1372.525    -924.194     306.974
  O     1374.535    -927.558     301.717
  O     1374.056    -927.758     304.194
  H     1374.638    -921.629     308.114
  H     1374.431    -928.640     303.901
  H     1368.205    -922.979     309.118
  H     1373.046    -926.274     306.393
  H     1373.401    -922.530     306.197
  H     1374.495    -923.833     308.549
  H     1368.894    -920.794     309.475
  H     1375.563    -925.473     307.348
  H     1370.496    -920.312     308.931
  H     1376.154    -923.646     304.943
  H     1377.007    -926.075     304.996
  H     1375.420    -926.630     305.414
  P     1378.500    -925.124     307.127
  C     1379.916    -923.452     305.771
  O     1379.064    -924.570     305.721
  O     1377.915    -926.562     306.748
  O     1379.526    -925.207     308.237
  H     1378.627    -927.226     306.766
  H     1379.978    -923.002     304.786
  H     1380.927    -923.771     306.078
  H     1379.537    -922.674     306.491
  H     1371.706    -924.574     302.082
  H     1372.180    -926.005     301.199
  H     1373.259    -924.634     301.282

 3  4  5  6  7  8  9  10  11  12  23  26  30  31 0
 6-311+G(2d,p)
 ****
 33  35  36  37  38 0
 6-311+G(2d,p)
 ****
 1  2  13  14  15  16  17  18  19  20  21  22  24  25 0
 3-21G
 ****
 27  28  29  32  34  39  40  41  42  43  44  45  46  47  48  49 0
 3-21G
 ****


