%nproc=1
%NoSave
%Mem=1900MB
#P OB98/GEN NMR

erre ene a

0 1
  C       36.034      77.764     109.711
  O       34.996      78.720     109.465
  P       35.281      79.884     108.400
  C       36.040      82.373     108.454
  O       35.637      81.230     109.195
  C       35.233      83.603     108.883
  O       33.853      83.507     108.472
  C       35.192      83.814     110.388
  O       36.363      84.466     110.856
  C       33.987      84.731     110.526
  O       34.364      86.085     110.204
  C       33.036      84.179     109.458
  N       28.989      83.606     112.548
  C       29.771      84.675     112.273
  N       30.841      84.744     111.454
  C       31.072      83.556     110.873
  C       30.364      82.380     111.056
  C       29.274      82.429     111.941
  N       28.482      81.338     112.214
  N       30.903      81.360     110.299
  C       31.911      81.916     109.658
  N       32.058      83.239     109.978
  O       33.828      80.187     107.799
  O       36.247      79.501     107.328
  H       33.573      86.640     110.339
  H       33.904      80.429     106.857
  H       29.500      85.596     112.780
  H       32.555      81.406     108.954
  H       32.481      84.972     108.944
  H       33.584      84.748     111.542
  H       35.007      82.867     110.913
  H       35.675      84.484     108.399
  H       35.907      82.192     107.384
  H       27.700      81.458     112.839
  H       28.676      80.465     111.747
  H       37.112      82.537     108.607
  P       37.581      83.537     111.333
  C       37.895      82.043     113.435
  O       37.282      83.183     112.866
  O       38.809      84.562     111.401
  O       37.865      82.382     110.433
  H       39.646      84.095     111.211
  H       37.837      82.121     114.524
  H       38.947      81.973     113.144
  H       37.364      81.142     113.116
  H       35.700      77.055     110.439
  H       36.904      78.268     110.077
  H       36.273      77.255     108.801

 3  4  5  6  7  8  9  10  11  12  22  25  29  30  31  32 0
 6-311+G(2d,p)
 ****
 33  36  37 0
 6-311+G(2d,p)
 ****
 1  2  13  14  15  16  17  18  19  20  21  23  24  26 0
 3-21G
 ****
 27  28  34  35  38  39  40  41  42  43  44  45  46  47  48 0
 3-21G
 ****


