%nproc=1
%NoSave
%Mem=1900MB
#P OB98/GEN NMR

erre ene a

0 1
  C      226.401     103.948    -156.626
  O      227.147     103.867    -157.839
  P      226.581     104.250    -159.280
  C      225.611     101.850    -159.700
  O      226.451     102.908    -160.140
  C      225.648     100.622    -160.627
  O      225.164     100.996    -161.945
  C      227.087     100.138    -160.816
  O      227.681      99.282    -159.857
  C      227.127      99.591    -162.237
  O      226.893      98.184    -162.294
  C      225.992     100.349    -162.933
  N      227.943     101.200    -167.587
  C      227.666      99.999    -166.964
  N      227.995      98.879    -167.639
  N      227.133      99.907    -165.775
  C      226.933     101.103    -165.175
  C      227.188     102.357    -165.680
  C      227.725     102.450    -167.021
  O      227.981     103.489    -167.626
  N      226.881     103.338    -164.771
  C      226.466     102.680    -163.711
  N      226.473     101.316    -163.907
  O      227.236     105.416    -159.941
  O      225.048     104.657    -158.980
  H      225.976      98.020    -162.016
  H      224.814     105.357    -159.627
  H      228.332     101.213    -168.517
  H      226.147     103.136    -162.781
  H      225.337      99.662    -163.483
  H      228.112      99.762    -162.690
  H      228.516      98.881    -168.504
  H      227.726     101.028    -160.829
  H      227.995      98.008    -167.102
  H      224.972      99.843    -160.268
  H      224.596     102.255    -159.643
  H      225.887     101.551    -158.686
  P      228.312      99.730    -158.453
  C      230.671      99.278    -159.351
  O      229.741      99.028    -158.310
  O      227.431      98.951    -157.371
  O      228.300     101.201    -158.197
  H      227.555      99.344    -156.486
  H      231.462      98.527    -159.312
  H      231.111     100.271    -159.217
  H      230.181      99.228    -160.330
  H      227.015     103.634    -155.808
  H      225.543     103.313    -156.692
  H      226.086     104.958    -156.468

 3  4  5  6  7  8  9  10  11  12  23  26  30  31 0
 6-311+G(2d,p)
 ****
 33  35  36  37  38 0
 6-311+G(2d,p)
 ****
 1  2  13  14  15  16  17  18  19  20  21  22  24  25 0
 3-21G
 ****
 27  28  29  32  34  39  40  41  42  43  44  45  46  47  48  49 0
 3-21G
 ****


