%nproc=1
%NoSave
%Mem=1900MB
#P OB98/GEN NMR

erre ene a

0 1
  C      -96.421     106.231    -623.675
  O      -95.095     106.006    -623.245
  H      -97.101     105.677    -623.016
  H      -96.553     105.870    -624.700
  H      -96.665     107.295    -623.616
  P      -93.921     106.750    -624.063
  C      -93.308     104.591    -625.380
  O      -93.792     105.930    -625.443
  C      -92.615     104.221    -626.696
  O      -93.595     104.185    -627.763
  C      -91.511     105.208    -627.105
  O      -90.377     104.484    -627.585
  C      -92.144     106.020    -628.227
  O      -91.170     106.560    -629.120
  C      -93.126     105.007    -628.842
  N      -94.228     105.673    -629.532
  C      -94.034     105.988    -630.882
  O      -92.965     105.719    -631.435
  N      -95.031     106.646    -631.561
  C      -96.102     107.014    -630.933
  N      -97.047     107.685    -631.654
  C      -96.329     106.754    -629.499
  C      -95.365     106.077    -628.862
  O      -92.607     106.342    -623.249
  O      -94.106     108.228    -624.231
  H      -91.653     106.987    -629.869
  H      -91.832     106.906    -623.513
  H      -97.234     107.092    -629.011
  H      -95.446     105.836    -627.807
  H      -92.600     104.361    -629.565
  H      -92.705     106.860    -627.797
  H      -91.205     105.859    -626.289
  H      -92.213     103.198    -626.602
  H      -96.851     107.857    -632.632
  H      -94.148     103.919    -625.207
  H      -97.902     108.041    -631.258
  H      -92.591     104.506    -624.557
  P      -89.259     104.119    -626.482
  C      -87.697     106.174    -626.773
  O      -88.640     105.503    -625.943
  O      -88.074     103.482    -627.344
  O      -89.758     103.201    -625.409
  H      -88.113     102.504    -627.300
  H      -87.373     107.073    -626.291
  H      -88.155     106.417    -627.709
  H      -86.854     105.537    -626.943

 6  7  8  9  10  11  12  13  14  15  16  26  30  31  32  33  35 0
 6-311+G(2d,p)
 ****
 37  38 0
 6-311+G(2d,p)
 ****
 1  2  3  4  5  17  18  19  20  21  22  23  24  25 0
 3-21G
 ****
 27  28  29  34  36  39  40  41  42  43  44  45  46 0
 3-21G
 ****


