%nproc=1
%NoSave
%Mem=1900MB
#P OB98/GEN NMR

erre ene a

0 1
  C     -132.142      74.904     244.820
  O     -130.895      75.126     245.456
  P     -129.678      74.125     245.194
  C     -129.852      72.853     247.425
  O     -129.976      72.773     246.007
  C     -130.283      71.539     248.072
  O     -131.684      71.294     247.830
  C     -129.553      70.313     247.531
  O     -128.247      70.227     248.064
  C     -130.496      69.192     247.967
  O     -130.261      68.841     249.344
  C     -131.873      69.857     247.804
  N     -135.081      66.471     245.728
  C     -134.468      66.515     246.935
  N     -133.592      67.436     247.402
  C     -133.350      68.369     246.465
  C     -133.873      68.443     245.179
  C     -134.800      67.443     244.819
  N     -135.481      67.426     243.618
  N     -133.362      69.535     244.507
  C     -132.536      70.105     245.371
  N     -132.548      69.472     246.581
  O     -128.316      74.704     245.409
  O     -129.869      73.676     243.668
  H     -129.300      68.716     249.452
  H     -129.085      73.940     243.151
  H     -134.719      65.706     247.615
  H     -131.928      70.978     245.168
  H     -132.541      69.615     248.642
  H     -130.369      68.282     247.369
  H     -129.525      70.349     246.435
  H     -130.137      71.625     249.157
  H     -130.489      73.669     247.787
  H     -136.220      66.754     243.530
  H     -135.510      68.284     243.080
  H     -128.809      73.078     247.690
  P     -126.985      70.130     247.074
  C     -126.675      67.620     247.517
  O     -126.925      68.617     246.542
  O     -125.696      70.667     247.608
  O     -127.464      70.943     245.775
  H     -126.692      71.371     245.359
  H     -125.608      67.608     247.764
  H     -126.957      66.646     247.105
  H     -127.260      67.800     248.425
  H     -132.832      75.668     245.111
  H     -132.525      73.948     245.110
  H     -132.010      74.928     243.758

 3  4  5  6  7  8  9  10  11  12  22  25  29  30  31  32 0
 6-311+G(2d,p)
 ****
 33  36  37 0
 6-311+G(2d,p)
 ****
 1  2  13  14  15  16  17  18  19  20  21  23  24  26 0
 3-21G
 ****
 27  28  34  35  38  39  40  41  42  43  44  45  46  47  48 0
 3-21G
 ****


