%nproc=1
%NoSave
%Mem=1900MB
#P OB98/GEN NMR

erre ene a

0 1
  C      136.227     510.018    -236.855
  O      134.943     510.115    -236.245
  P      133.888     508.952    -236.556
  C      132.109     509.529    -238.371
  O      133.454     509.152    -238.088
  C      131.834     510.961    -237.912
  O      132.844     511.840    -238.444
  C      130.505     511.519    -238.379
  O      129.448     511.021    -237.593
  C      130.745     513.025    -238.215
  O      130.434     513.447    -236.879
  C      132.259     513.169    -238.507
  N      132.522     513.803    -239.782
  C      133.292     514.973    -239.725
  O      133.670     515.421    -238.637
  N      133.562     515.641    -240.900
  C      133.101     515.172    -242.030
  N      133.411     515.874    -243.155
  C      132.280     513.956    -242.123
  C      132.015     513.325    -240.972
  O      132.593     509.410    -235.735
  O      134.339     507.570    -236.188
  H      129.489     513.193    -236.733
  H      132.034     508.644    -235.499
  H      131.928     513.610    -243.083
  H      131.421     512.427    -240.954
  H      132.741     513.766    -237.716
  H      130.113     513.616    -238.880
  H      130.343     511.294    -239.435
  H      131.902     511.002    -236.816
  H      133.984     516.708    -243.071
  H      131.425     508.853    -237.837
  H      133.130     515.579    -244.080
  H      131.932     509.427    -239.444
  P      127.966     511.081    -238.204
  C      126.569     513.033    -237.283
  O      127.580     512.635    -238.203
  O      127.076     510.510    -236.996
  O      127.727     510.333    -239.477
  H      126.154     510.408    -237.293
  H      126.527     514.123    -237.269
  H      126.810     512.676    -236.274
  H      125.607     512.638    -237.612
  H      136.825     510.856    -236.562
  H      136.117     510.013    -237.919
  H      136.703     509.113    -236.542

 3  4  5  6  7  8  9  10  11  12  13  21  23  27  28  29  30  32 0
 6-311+G(2d,p)
 ****
 34  35 0
 6-311+G(2d,p)
 ****
 1  2  14  15  16  17  18  19  20  22  24  25  26 0
 3-21G
 ****
 31  33  36  37  38  39  40  41  42  43  44  45  46 0
 3-21G
 ****


