%nproc=1
%NoSave
%Mem=1900MB
#P OB98/GEN NMR

erre ene a

0 1
  C       88.833     716.326      79.494
  O       87.805     715.612      80.182
  P       86.276     715.610      79.678
  C       86.584     713.288      78.609
  O       86.143     714.629      78.422
  C       86.028     712.352      77.524
  O       84.601     712.208      77.658
  C       86.272     712.834      76.096
  O       87.600     712.560      75.696
  C       85.193     712.051      75.342
  O       85.633     710.712      75.077
  C       84.033     712.048      76.333
  N       80.315     713.636      73.199
  C       81.083     712.521      73.211
  N       82.056     712.177      74.081
  C       82.187     713.106      75.030
  C       81.489     714.303      75.146
  C       80.514     714.556      74.168
  N       79.750     715.702      74.158
  N       81.931     715.019      76.240
  C       82.870     714.260      76.780
  N       83.062     713.100      76.086
  O       85.705     716.976      79.463
  O       85.468     714.837      80.830
  H       86.370     710.765      74.435
  H       84.547     715.159      80.861
  H       80.878     711.806      72.409
  H       83.426     714.518      77.675
  H       83.498     711.104      76.339
  H       84.950     712.505      74.373
  H       86.068     713.902      76.017
  H       86.474     711.364      77.683
  H       86.236     712.947      79.587
  H       79.088     715.820      73.407
  H       79.919     716.413      74.844
  H       87.672     713.272      78.591
  P       88.700     713.723      75.696
  C       90.395     712.382      77.087
  O       89.577     713.537      77.028
  O       88.174     715.101      75.471
  O       89.717     713.281      74.545
  H       90.125     714.085      74.153
  H       89.780     711.518      77.372
  H       91.166     712.540      77.847
  H       90.874     712.189      76.119
  H       89.765     716.188      80.002
  H       88.590     717.368      79.472
  H       88.915     715.957      78.493

 3  4  5  6  7  8  9  10  11  12  22  25  29  30  31  32 0
 6-311+G(2d,p)
 ****
 33  36  37 0
 6-311+G(2d,p)
 ****
 1  2  13  14  15  16  17  18  19  20  21  23  24  26 0
 3-21G
 ****
 27  28  34  35  38  39  40  41  42  43  44  45  46  47  48 0
 3-21G
 ****


