%nproc=1
%NoSave
%Mem=1900MB
#P OB98/GEN NMR

erre ene a

0 1
  C     -194.165     355.493    -166.159
  O     -193.893     356.781    -166.715
  P     -194.692     357.171    -168.056
  C     -195.424     359.639    -167.673
  O     -195.794     358.266    -167.655
  C     -196.506     360.481    -168.344
  O     -196.490     360.305    -169.771
  C     -197.925     360.131    -167.918
  O     -198.257     360.710    -166.666
  C     -198.736     360.769    -169.038
  O     -198.915     362.172    -168.774
  C     -197.827     360.564    -170.261
  N     -201.378     358.800    -173.420
  C     -201.311     360.003    -172.749
  N     -202.320     360.872    -172.968
  N     -200.342     360.328    -171.931
  C     -199.384     359.375    -171.830
  C     -199.337     358.145    -172.443
  C     -200.433     357.785    -173.318
  O     -200.557     356.721    -173.914
  N     -198.203     357.457    -172.101
  C     -197.548     358.279    -171.306
  N     -198.233     359.453    -171.099
  O     -195.565     355.860    -168.345
  O     -193.810     357.522    -169.206
  H     -199.321     362.246    -167.887
  H     -195.756     355.790    -169.300
  H     -202.149     358.599    -174.030
  H     -196.583     358.079    -170.861
  H     -197.776     361.464    -170.886
  H     -199.733     360.334    -169.139
  H     -203.059     360.718    -173.638
  H     -198.076     359.044    -167.921
  H     -202.272     361.775    -172.512
  H     -196.301     361.539    -168.121
  H     -194.483     359.762    -168.210
  H     -195.249     359.972    -166.644
  P     -199.627     360.235    -165.979
  C     -198.096     358.740    -164.512
  O     -199.290     358.844    -165.261
  O     -200.534     359.820    -167.230
  O     -200.282     361.273    -165.129
  H     -201.478     359.945    -167.016
  H     -197.938     359.630    -163.897
  H     -197.248     358.603    -165.188
  H     -198.168     357.870    -163.855
  H     -193.576     355.354    -165.276
  H     -193.919     354.736    -166.875
  H     -195.203     355.424    -165.910

 3  4  5  6  7  8  9  10  11  12  23  26  30  31  33  0
 6-311+G(2d,p)
 ****
 35  36  37  38 0
 6-311+G(2d,p)
 ****
 1  2  13  14  15  16  17  18  19  20  21  22  24  25  27  28  29 0
 3-21G
 ****
 32  34  39  40  41  42  43  44  45  46  47  48  49 0
 3-21G
 ****


