%nproc=1
%NoSave
%Mem=1900MB
#P OB98/GEN NMR

erre ene a

0 1
  C     -229.837     539.280    -207.045
  O     -229.420     539.624    -208.355
  H     -229.776     540.153    -206.391
  H     -230.874     538.942    -207.087
  H     -229.215     538.472    -206.651
  P     -227.904     540.124    -208.515
  C     -226.652     542.277    -207.783
  O     -227.750     541.406    -207.562
  C     -226.616     543.365    -206.712
  O     -227.628     544.355    -206.978
  C     -226.886     542.868    -205.297
  O     -225.735     542.278    -204.711
  C     -227.250     544.178    -204.603
  O     -226.052     544.913    -204.293
  C     -228.045     544.905    -205.697
  N     -232.480     547.358    -204.964
  C     -231.211     547.807    -205.118
  N     -230.086     547.093    -205.337
  C     -230.367     545.780    -205.394
  C     -231.605     545.173    -205.278
  C     -232.700     546.024    -205.042
  N     -233.979     545.542    -204.815
  N     -231.485     543.796    -205.383
  C     -230.196     543.584    -205.545
  N     -229.483     544.748    -205.566
  O     -227.890     540.742    -209.994
  O     -226.863     539.067    -208.347
  H     -225.676     545.211    -205.143
  H     -227.538     540.076    -210.616
  H     -231.089     548.882    -205.064
  H     -229.744     542.607    -205.645
  H     -227.829     545.979    -205.720
  H     -227.797     544.029    -203.665
  H     -227.749     542.192    -205.266
  H     -225.637     543.862    -206.772
  H     -226.750     542.746    -208.769
  H     -234.541     546.151    -204.220
  H     -234.028     544.548    -204.624
  H     -225.727     541.691    -207.760
  P     -225.930     540.934    -203.861
  C     -227.194     540.287    -201.696
  O     -226.930     541.301    -202.656
  O     -224.516     540.758    -203.135
  O     -226.289     539.725    -204.655
  H     -224.142     539.877    -203.349
  H     -227.869     540.663    -200.956
  H     -226.278     539.993    -201.227
  H     -227.633     539.441    -202.182

 6  7  8  9  10  11  12  13  14  15  25  28  32  33  34  35 0
 6-311+G(2d,p)
 ****
 36  39  40 0
 6-311+G(2d,p)
 ****
 1  2  3  4  5  16  17  18  19  20  21  22  23  24 0
 3-21G
 ****
 26  27  29  30  31  37  38  41  42  43  44  45  46  47  48 0
 3-21G
 ****


