%nproc=1
%NoSave
%Mem=1900MB
#P OB98/GEN NMR

erre ene a

0 1
  C      -96.590     -30.474      33.252
  O      -96.218     -29.311      32.511
  P      -94.675     -29.209      32.080
  C      -94.227     -27.112      33.539
  O      -93.881     -28.459      33.254
  C      -93.147     -26.445      34.393
  O      -91.817     -26.790      33.963
  C      -93.211     -24.924      34.368
  O      -94.228     -24.467      35.242
  C      -91.810     -24.546      34.829
  O      -91.711     -24.558      36.268
  C      -90.943     -25.662      34.224
  N      -86.984     -23.155      32.293
  C      -87.472     -23.180      33.585
  N      -86.793     -22.453      34.497
  N      -88.528     -23.858      33.949
  C      -89.106     -24.541      32.933
  C      -88.700     -24.617      31.621
  C      -87.531     -23.858      31.229
  O      -87.048     -23.822      30.104
  N      -89.504     -25.460      30.896
  C      -90.464     -25.788      31.740
  N      -90.234     -25.309      33.007
  O      -94.695     -28.146      30.884
  O      -94.092     -30.513      31.646
  H      -91.814     -25.472      36.586
  H      -94.505     -28.595      30.039
  H      -86.172     -22.609      32.066
  H      -91.327     -26.388      31.494
  H      -90.179     -26.005      34.932
  H      -91.535     -23.538      34.511
  H      -85.970     -21.909      34.287
  H      -93.378     -24.570      33.344
  H      -87.130     -22.464      35.452
  H      -93.274     -26.804      35.422
  H      -95.185     -27.073      34.060
  H      -94.362     -26.576      32.593
  P      -95.645     -24.076      34.604
  C      -94.897     -21.612      34.286
  O      -95.421     -22.783      33.690
  O      -96.469     -23.523      35.861
  O      -96.362     -25.209      33.948
  H      -97.374     -23.887      35.844
  H      -94.333     -21.056      33.534
  H      -94.237     -21.845      35.125
  H      -95.724     -20.990      34.641
  H      -97.634     -30.432      33.481
  H      -96.026     -30.513      34.161
  H      -96.388     -31.348      32.669

 3  4  5  6  7  8  9  10  11  12  23  26  30  31 0
 6-311+G(2d,p)
 ****
 33  35  36  37  38 0
 6-311+G(2d,p)
 ****
 1  2  13  14  15  16  17  18  19  20  21  22  24  25 0
 3-21G
 ****
 27  28  29  32  34  39  40  41  42  43  44  45  46  47  48  49 0
 3-21G
 ****


