%nproc=1
%NoSave
%Mem=1900MB
#P OB98/GEN NMR

erre ene a

0 1
  C       18.162    -813.324      57.430
  O       19.056    -813.915      58.354
  H       18.024    -812.274      57.701
  H       17.191    -813.830      57.466
  H       18.580    -813.378      56.420
  P       19.373    -815.474      58.150
  C       20.306    -815.398      60.574
  O       19.455    -816.060      59.644
  C       20.224    -816.066      61.943
  O       18.949    -815.808      62.551
  C       20.395    -817.575      61.906
  O       21.764    -817.925      61.887
  C       19.751    -817.963      63.232
  O       20.692    -817.762      64.311
  C       18.590    -816.961      63.359
  N       14.872    -820.420      64.141
  C       16.128    -820.327      64.638
  N       17.085    -819.411      64.349
  C       16.620    -818.523      63.443
  C       15.374    -818.502      62.844
  C       14.475    -819.502      63.236
  N       13.195    -819.609      62.726
  N       15.266    -817.438      61.970
  C       16.420    -816.800      62.074
  N       17.289    -817.445      62.931
  O       20.526    -815.790      57.257
  O       17.951    -816.016      57.642
  H       20.211    -817.977      65.139
  H       17.230    -815.587      58.140
  H       16.413    -821.085      65.365
  H       16.662    -815.872      61.582
  H       18.473    -816.605      64.384
  H       19.445    -819.006      63.268
  H       19.828    -818.038      61.084
  H       20.994    -815.600      62.588
  H       20.014    -814.346      60.651
  H       12.687    -820.452      62.905
  H       12.945    -818.996      61.961
  H       21.325    -815.441      60.174
  P       22.229    -819.464      61.885
  C       24.589    -818.559      62.350
  O       23.594    -819.488      62.734
  O       22.292    -820.091      60.531
  O       21.189    -820.190      62.856
  H       21.214    -821.150      62.717
  H       25.444    -818.670      62.984
  H       24.204    -817.565      62.442
  H       24.872    -818.739      61.334

 6  7  8  9  10  11  12  13  14  15  25  28  32  33  34  35 0
 6-311+G(2d,p)
 ****
 36  39  40 0
 6-311+G(2d,p)
 ****
 1  2  3  4  5  16  17  18  19  20  21  22  23  24 0
 3-21G
 ****
 26  27  29  30  31  37  38  41  42  43  44  45  46  47 0
 3-21G
 ****
 48 0
 3-21G
 ****


