%nproc=1
%NoSave
%Mem=1900MB
#P OB98/GEN NMR

erre ene a

0 1
  C     -428.901    -994.190     198.972
  O     -427.799    -994.036     199.875
  P     -427.725    -992.714     200.793
  C     -427.811    -994.002     203.073
  O     -427.102    -993.108     202.218
  C     -426.849    -994.984     203.728
  O     -426.386    -995.959     202.775
  C     -425.567    -994.346     204.279
  O     -425.809    -993.684     205.512
  C     -424.660    -995.557     204.404
  O     -424.927    -996.272     205.639
  C     -425.074    -996.404     203.195
  N     -424.109    -996.341     202.103
  C     -423.151    -997.342     202.067
  O     -423.054    -998.220     202.943
  N     -422.266    -997.285     201.024
  C     -422.198    -996.311     200.069
  O     -421.372    -996.315     199.169
  C     -423.186    -995.236     200.209
  C     -424.086    -995.299     201.195
  O     -429.268    -992.478     201.158
  O     -427.148    -991.494     200.138
  H     -425.889    -996.442     205.653
  H     -429.432    -991.519     201.323
  H     -421.570    -998.022     200.966
  H     -423.165    -994.439     199.476
  H     -424.820    -994.493     201.318
  H     -425.198    -997.449     203.488
  H     -423.600    -995.290     204.418
  H     -425.152    -993.650     203.533
  H     -427.388    -995.516     204.524
  H     -428.544    -994.560     202.482
  H     -428.336    -993.417     203.836
  P     -424.661    -992.673     206.022
  C     -426.002    -990.444     205.784
  O     -425.443    -991.419     206.635
  O     -424.064    -992.159     204.623
  O     -423.657    -993.352     206.912
  H     -424.750    -992.097     203.943
  H     -426.373    -990.893     204.857
  H     -425.264    -989.679     205.569
  H     -426.844    -989.973     206.313
  H     -428.801    -995.114     198.441
  H     -428.908    -993.377     198.276
  H     -429.817    -994.194     199.525

 3  4  5  6  7  8  9  10  11  12  13  23  28  29  30  31  32 0
 6-311+G(2d,p)
 ****
 33  34 0
 6-311+G(2d,p)
 ****
 1  2  14  15  16  17  18  19  20  21  22  24  25  26 0
 3-21G
 ****
 27  35  36  37  38  39  40  41  42  43  44  45 0
 3-21G
 ****


