%nproc=1
%NoSave
%Mem=1900MB
#P OB98/GEN NMR

erre ene a

0 1
  C     -331.115     124.236     619.658
  O     -331.597     122.946     619.338
  H     -330.070     124.151     619.970
  H     -331.695     124.667     620.477
  H     -331.166     124.883     618.777
  P     -333.135     122.846     618.886
  C     -332.815     123.208     616.342
  O     -333.225     123.774     617.579
  C     -333.886     123.421     615.275
  O     -335.121     122.800     615.676
  C     -334.214     124.885     614.998
  O     -333.278     125.438     614.085
  C     -335.594     124.758     614.368
  O     -335.460     124.399     612.980
  C     -336.220     123.592     615.152
  N     -340.216     126.470     616.605
  C     -339.492     126.452     615.465
  N     -338.408     125.700     615.168
  C     -338.096     124.889     616.191
  C     -338.743     124.797     617.415
  C     -339.858     125.633     617.604
  N     -340.596     125.647     618.768
  N     -338.136     123.858     618.223
  C     -337.176     123.350     617.479
  N     -337.087     123.965     616.252
  O     -334.142     123.112     619.954
  O     -333.175     121.370     618.266
  H     -335.037     125.155     612.533
  H     -332.368     121.196     617.750
  H     -339.820     127.137     614.688
  H     -336.535     122.524     617.764
  H     -336.810     122.934     614.502
  H     -336.161     125.689     614.404
  H     -334.292     125.464     615.924
  H     -333.552     122.915     614.358
  H     -332.625     122.135     616.463
  H     -341.247     126.404     618.893
  H     -340.245     125.121     619.557
  H     -331.882     123.694     616.049
  P     -333.053     127.022     613.994
  C     -331.085     127.220     615.638
  O     -332.477     127.445     615.432
  O     -334.237     127.791     613.521
  O     -331.783     127.186     613.036
  H     -331.725     128.103     612.707
  H     -330.814     127.537     616.624
  H     -330.523     127.777     614.917
  H     -330.872     126.177     615.528

 6  7  8  9  10  11  12  13  14  15  25  28  32  33  34  35 0
 6-311+G(2d,p)
 ****
 36  39  40 0
 6-311+G(2d,p)
 ****
 1  2  3  4  5  16  17  18  19  20  21  22  23  24 0
 3-21G
 ****
 26  27  29  30  31  37  38  41  42  43  44  45  46  47 0
 3-21G
 ****
 48 0
 3-21G
 ****


