%nproc=1
%NoSave
%Mem=1900MB
#P OB98/GEN NMR

erre ene a

0 1
  C      286.650      21.237    -587.794
  O      286.102      22.537    -587.681
  H      285.910      20.586    -588.263
  H      286.891      20.841    -586.804
  H      287.547      21.263    -588.419
  P      287.023      23.645    -586.977
  C      285.992      22.964    -584.703
  O      286.244      24.017    -585.627
  C      285.473      23.522    -583.381
  O      286.456      24.387    -582.787
  C      284.196      24.349    -583.509
  O      283.055      23.505    -583.533
  C      284.251      25.167    -582.229
  O      283.769      24.375    -581.123
  C      285.757      25.438    -582.065
  N      287.303      30.157    -580.748
  C      286.738      29.163    -580.027
  N      286.307      27.957    -580.449
  C      286.505      27.812    -581.773
  C      287.063      28.741    -582.637
  C      287.480      29.963    -582.074
  N      288.048      30.974    -582.818
  N      287.104      28.247    -583.928
  C      286.636      27.021    -583.823
  N      286.227      26.724    -582.549
  O      287.426      24.793    -587.841
  O      288.232      22.742    -586.441
  H      283.825      24.937    -580.332
  H      287.897      21.901    -586.081
  H      286.623      29.365    -578.966
  H      286.587      26.303    -584.636
  H      286.070      25.370    -581.010
  H      283.625      26.065    -582.277
  H      284.231      25.029    -584.371
  H      285.318      22.676    -582.698
  H      286.912      22.391    -584.524
  H      288.137      31.878    -582.381
  H      288.061      30.874    -583.825
  H      285.250      22.296    -585.152
  P      281.651      24.024    -584.112
  C      280.993      25.013    -581.827
  O      280.676      24.066    -582.839
  O      281.155      23.269    -585.294
  O      281.905      25.574    -584.422
  H      281.202      25.912    -585.016
  H      280.275      24.945    -581.037
  H      280.973      25.999    -582.242
  H      281.969      24.808    -581.440

 6  7  8  9  10  11  12  13  14  15  25  28  32  33  34  35 0
 6-311+G(2d,p)
 ****
 36  39  40 0
 6-311+G(2d,p)
 ****
 1  2  3  4  5  16  17  18  19  20  21  22  23  24 0
 3-21G
 ****
 26  27  29  30  31  37  38  41  42  43  44  45  46  47 0
 3-21G
 ****
 48 0
 3-21G
 ****


