%nproc=1
%NoSave
%Mem=1900MB
#P OB98/GEN NMR

erre ene a

0 1
  C      372.394    -247.653     119.150
  O      372.054    -246.647     120.077
  P      371.148    -246.895     121.363
  C      373.079    -247.624     122.967
  O      371.875    -247.976     122.298
  C      373.022    -248.024     124.449
  O      371.930    -247.307     125.077
  C      372.729    -249.524     124.618
  O      373.492    -250.152     125.639
  C      371.213    -249.559     124.757
  O      370.726    -250.747     125.365
  C      370.941    -248.262     125.513
  N      367.309    -245.226     127.357
  C      368.629    -245.337     127.747
  N      368.967    -244.693     128.885
  N      369.515    -246.047     127.098
  C      369.002    -246.724     126.047
  C      367.714    -246.691     125.565
  C      366.753    -245.878     126.270
  O      365.547    -245.838     126.027
  N      367.536    -247.560     124.520
  C      368.710    -248.148     124.390
  N      369.621    -247.698     125.317
  O      369.679    -247.042     121.130
  O      371.377    -245.528     122.191
  H      370.941    -251.490     124.770
  H      370.539    -245.329     122.653
  H      366.653    -244.726     127.946
  H      368.945    -248.922     123.670
  H      371.055    -248.395     126.591
  H      370.789    -249.522     123.749
  H      368.276    -244.263     129.480
  H      373.015    -250.074     123.715
  H      369.847    -244.959     129.320
  H      373.951    -247.719     124.940
  H      373.176    -246.538     122.874
  H      373.940    -248.083     122.475
  P      374.388    -251.470     125.553
  C      376.515    -250.419     124.582
  O      375.432    -251.300     124.353
  O      373.403    -252.606     125.008
  O      374.998    -251.896     126.849
  H      373.589    -253.447     125.467
  H      376.984    -250.181     123.622
  H      377.253    -250.904     125.225
  H      376.169    -249.491     125.048
  H      373.008    -247.235     118.380
  H      371.502    -248.055     118.717
  H      372.930    -248.432     119.650

 3  4  5  6  7  8  9  10  11  12  23  26  30  31 0
 6-311+G(2d,p)
 ****
 33  35  36  37  38 0
 6-311+G(2d,p)
 ****
 1  2  13  14  15  16  17  18  19  20  21  22  24  25 0
 3-21G
 ****
 27  28  29  32  34  39  40  41  42  43  44  45  46  47  48  49 0
 3-21G
 ****


