%nproc=1
%NoSave
%Mem=1900MB
#P OB98/GEN NMR

erre ene a

0 1
  C      137.402    -160.689    -383.587
  O      137.330    -161.434    -384.786
  H      136.948    -161.274    -382.784
  H      136.856    -159.747    -383.687
  H      138.445    -160.487    -383.326
  P      137.932    -160.784    -386.122
  C      138.904    -161.699    -388.331
  O      138.376    -162.014    -387.050
  C      140.035    -162.662    -388.679
  O      141.168    -162.441    -387.817
  C      139.659    -164.137    -388.535
  O      138.939    -164.579    -389.674
  C      141.038    -164.760    -388.417
  O      141.656    -164.822    -389.719
  C      141.770    -163.735    -387.532
  N      144.346    -164.303    -383.203
  C      144.807    -164.117    -384.494
  N      146.148    -164.128    -384.656
  N      144.025    -163.959    -385.528
  C      142.711    -164.040    -385.224
  C      142.133    -164.237    -383.990
  C      143.006    -164.356    -382.843
  O      142.639    -164.504    -381.680
  N      140.767    -164.329    -384.081
  C      140.520    -164.150    -385.366
  N      141.666    -163.985    -386.103
  O      139.003    -159.753    -385.932
  O      136.653    -160.192    -386.878
  H      142.496    -165.303    -389.604
  H      136.505    -159.258    -386.641
  H      144.999    -164.439    -382.450
  H      139.529    -164.127    -385.808
  H      142.837    -163.663    -387.771
  H      141.019    -165.774    -388.018
  H      146.767    -164.526    -383.960
  H      139.113    -164.326    -387.605
  H      146.504    -164.045    -385.598
  H      140.360    -162.440    -389.704
  H      139.278    -160.670    -388.290
  H      138.122    -161.760    -389.092
  P      138.597    -166.134    -389.884
  C      136.741    -167.410    -391.153
  O      137.228    -166.146    -390.721
  O      138.568    -166.943    -388.632
  O      139.664    -166.640    -390.957
  H      140.509    -166.959    -390.555
  H      135.829    -167.274    -391.695
  H      136.561    -168.033    -390.302
  H      137.467    -167.874    -391.787

 6  7  8  9  10  11  12  13  14  15  26  29  33  34 0
 6-311+G(2d,p)
 ****
 36  38  39  40  41 0
 6-311+G(2d,p)
 ****
 1  2  3  4  5  16  17  18  19  20  21  22  23  24  25 0
 3-21G
 ****
 27  28  30  31  32  35  37  42  43  44  45  46  47 0
 3-21G
 ****
 48  49 0
 3-21G
 ****


