%nproc=1
%NoSave
%Mem=1900MB
#P OB98/GEN NMR

erre ene a

0 1
  C      336.794    -107.443     155.414
  O      336.443    -107.907     154.125
  H      336.660    -106.359     155.473
  H      336.140    -107.920     156.148
  H      337.831    -107.704     155.639
  P      337.264    -107.294     152.889
  C      335.913    -106.868     150.715
  O      336.555    -107.829     151.546
  C      335.077    -107.578     149.651
  O      335.863    -108.667     149.101
  C      333.747    -108.160     150.164
  O      332.653    -107.612     149.424
  C      333.840    -109.648     149.851
  O      332.614    -110.198     149.370
  C      334.940    -109.720     148.798
  N      334.285    -114.707     147.967
  C      333.608    -113.628     147.516
  N      333.893    -112.323     147.686
  C      335.033    -112.177     148.391
  C      335.845    -113.177     148.892
  C      335.418    -114.502     148.676
  N      336.079    -115.597     149.186
  N      336.926    -112.642     149.570
  C      336.743    -111.335     149.506
  N      335.603    -111.010     148.823
  O      338.646    -108.105     152.928
  O      337.484    -105.821     152.943
  H      332.422    -109.755     148.522
  H      339.391    -107.480     152.853
  H      332.703    -113.844     146.947
  H      337.375    -110.587     149.977
  H      334.552    -109.552     147.781
  H      334.127    -110.185     150.765
  H      333.599    -107.993     151.233
  H      334.891    -106.872     148.830
  H      336.671    -106.252     150.218
  H      335.645    -116.496     149.081
  H      336.864    -115.442     149.803
  H      335.288    -106.220     151.334
  P      331.967    -106.286     150.033
  C      329.839    -106.764     148.610
  O      330.825    -105.818     149.006
  O      333.110    -105.177     149.846
  O      331.545    -106.422     151.461
  H      333.005    -104.477     150.519
  H      329.155    -106.302     147.929
  H      329.307    -107.107     149.473
  H      330.314    -107.594     148.131

 6  7  8  9  10  11  12  13  14  15  25  28  32  33  34  35 0
 6-311+G(2d,p)
 ****
 36  39  40 0
 6-311+G(2d,p)
 ****
 1  2  3  4  5  16  17  18  19  20  21  22  23  24 0
 3-21G
 ****
 26  27  29  30  31  37  38  41  42  43  44  45  46  47  48 0
 3-21G
 ****


