%nproc=1
%NoSave
%Mem=1900MB
#P OB98/GEN NMR

erre ene a

0 1
  C       23.792     -78.999     107.763
  O       23.050     -79.971     107.021
  P       23.851     -81.270     106.530
  C       22.684     -83.107     107.949
  O       22.877     -82.536     106.661
  C       21.784     -84.338     107.849
  O       21.583     -84.959     109.137
  C       20.385     -84.024     107.333
  O       20.398     -83.790     105.935
  C       19.635     -85.280     107.760
  O       19.891     -86.356     106.842
  C       20.282     -85.595     109.119
  N       16.033     -86.350     111.867
  C       16.537     -86.990     110.789
  N       17.675     -86.726     110.113
  C       18.323     -85.686     110.662
  C       17.935     -84.940     111.762
  C       16.726     -85.305     112.376
  N       16.205     -84.644     113.465
  N       18.858     -83.948     112.028
  C       19.774     -84.081     111.090
  N       19.501     -85.124     110.248
  O       24.930     -81.498     107.689
  O       24.501     -81.105     105.196
  H       19.258     -87.073     107.049
  H       25.820     -81.267     107.366
  H       15.948     -87.825     110.419
  H       20.647     -83.448     110.980
  H       20.442     -86.669     109.263
  H       18.551     -85.139     107.803
  H       19.978     -83.149     107.853
  H       22.271     -85.064     107.184
  H       22.236     -82.374     108.624
  H       15.294     -84.919     113.796
  H       16.668     -83.810     113.799
  H       23.662     -83.365     108.369
  P       19.402     -82.677     105.355
  C       21.263     -80.922     105.131
  O       20.352     -81.756     104.441
  O       19.158     -81.760     106.640
  O       18.180     -83.210     104.689
  H       19.990     -81.564     107.107
  H       21.865     -80.381     104.396
  H       21.925     -81.522     105.760
  H       20.719     -80.198     105.743
  H       23.149     -78.187     108.030
  H       24.599     -78.632     107.163
  H       24.184     -79.451     108.650

 3  4  5  6  7  8  9  10  11  12  22  25  29  30  31  32 0
 6-311+G(2d,p)
 ****
 33  36  37 0
 6-311+G(2d,p)
 ****
 1  2  13  14  15  16  17  18  19  20  21  23  24  26 0
 3-21G
 ****
 27  28  34  35  38  39  40  41  42  43  44  45  46  47  48 0
 3-21G
 ****


