%nproc=1
%NoSave
%Mem=1900MB
#P OB98/GEN NMR

erre ene a

0 1
  C       -3.222     120.230     502.091
  O       -4.068     121.288     502.490
  H       -3.517     119.907     501.087
  H       -3.322     119.382     502.772
  H       -2.181     120.563     502.057
  P       -3.845     121.942     503.937
  C       -4.817     119.863     505.135
  O       -4.963     121.248     504.860
  C       -6.128     119.293     505.669
  O       -6.579     120.014     506.837
  C       -7.303     119.364     504.700
  O       -7.225     118.429     503.636
  C       -8.447     119.065     505.650
  O       -8.470     117.660     505.952
  C       -8.030     119.898     506.885
  N       -8.650     121.223     506.908
  C       -9.549     121.476     507.948
  O       -9.798     120.612     508.788
  N      -10.177     122.698     507.998
  C       -9.945     123.580     507.076
  N      -10.598     124.771     507.173
  C       -9.020     123.347     505.949
  C       -8.412     122.163     505.929
  O       -3.813     123.437     503.981
  O       -2.505     121.258     504.484
  H       -9.261     117.501     506.500
  H       -2.316     121.639     505.375
  H       -8.885     124.103     505.192
  H       -7.726     121.916     505.127
  H       -8.282     119.374     507.814
  H       -9.425     119.325     505.243
  H       -7.428     120.384     504.313
  H       -5.932     118.259     505.987
  H      -11.227     124.901     507.956
  H       -4.011     119.743     505.864
  H      -10.537     125.486     506.459
  H       -4.554     119.325     504.222
  P       -6.972     119.020     502.163
  C       -9.232     120.296     501.886
  O       -8.415     119.204     501.498
  O       -6.333     117.781     501.383
  O       -6.107     120.242     502.110
  H       -5.360     117.859     501.346
  H      -10.154     120.262     501.344
  H       -8.726     121.214     501.672
  H       -9.433     120.236     502.935

 6  7  8  9  10  11  12  13  14  15  16  26  30  31  32  33  35 0
 6-311+G(2d,p)
 ****
 37  38 0
 6-311+G(2d,p)
 ****
 1  2  3  4  5  17  18  19  20  21  22  23  24  25 0
 3-21G
 ****
 27  28  29  34  36  39  40  41  42  43  44  45  46 0
 3-21G
 ****


