%nproc=1
%NoSave
%Mem=1900MB
#P OB98/GEN NMR

erre ene a

0 1
  C      259.926     274.455    -524.983
  O      259.061     275.262    -525.763
  H      259.516     273.443    -524.891
  H      260.898     274.398    -525.481
  H      260.062     274.896    -523.990
  P      257.583     275.495    -525.181
  C      256.650     273.952    -527.050
  O      256.574     275.214    -526.396
  C      255.581     273.859    -528.134
  O      254.270     273.872    -527.536
  C      255.587     275.006    -529.141
  O      256.587     274.831    -530.131
  C      254.188     274.874    -529.727
  O      254.168     273.811    -530.697
  C      253.359     274.484    -528.497
  N      248.831     276.596    -527.395
  C      249.161     275.417    -527.975
  N      250.389     274.919    -528.212
  C      251.340     275.758    -527.767
  C      251.161     276.978    -527.143
  C      249.827     277.401    -526.963
  N      249.504     278.641    -526.428
  N      252.376     277.560    -526.846
  C      253.272     276.716    -527.305
  N      252.694     275.609    -527.862
  O      257.523     277.087    -524.990
  O      257.281     274.777    -523.908
  H      254.829     274.039    -531.380
  H      257.722     277.309    -524.064
  H      248.323     274.799    -528.293
  H      254.340     276.862    -527.256
  H      252.592     273.734    -528.732
  H      253.849     275.783    -530.233
  H      255.672     275.979    -528.646
  H      255.700     272.889    -528.643
  H      256.500     273.153    -526.319
  H      248.622     279.010    -526.768
  H      250.280     279.288    -526.373
  H      257.647     273.849    -527.492
  P      257.293     276.144    -530.723
  C      256.476     275.500    -533.094
  O      257.585     275.849    -532.271
  O      258.735     276.107    -530.047
  O      256.587     277.435    -530.430
  H      258.902     276.941    -529.562
  H      256.814     275.332    -534.095
  H      255.762     276.297    -533.088
  H      256.019     274.609    -532.717

 6  7  8  9  10  11  12  13  14  15  25  28  32  33  34  35 0
 6-311+G(2d,p)
 ****
 36  39  40 0
 6-311+G(2d,p)
 ****
 1  2  3  4  5  16  17  18  19  20  21  22  23  24 0
 3-21G
 ****
 26  27  29  30  31  37  38  41  42  43  44  45  46  47  48 0
 3-21G
 ****


