%nproc=1
%NoSave
%Mem=1900MB
#P OB98/GEN NMR

erre ene a

0 1
  C     -362.375     303.845     281.506
  O     -363.109     305.043     281.362
  H     -363.032     303.070     281.911
  H     -361.540     303.996     282.196
  H     -362.000     303.511     280.533
  P     -362.326     306.301     280.754
  C     -360.926     306.912     282.856
  O     -361.998     307.269     281.990
  C     -360.407     308.161     283.568
  O     -359.793     309.055     282.607
  C     -361.487     308.975     284.257
  O     -361.890     308.416     285.494
  C     -360.803     310.325     284.393
  O     -359.956     310.374     285.551
  C     -359.958     310.402     283.117
  N     -359.263     314.484     280.118
  C     -358.426     313.831     280.972
  N     -358.691     312.747     281.723
  C     -359.951     312.316     281.510
  C     -360.904     312.873     280.679
  C     -360.520     314.012     279.963
  N     -361.372     314.695     279.118
  N     -362.102     312.171     280.775
  C     -361.852     311.205     281.636
  N     -360.577     311.247     282.106
  O     -363.467     307.087     279.947
  O     -361.162     305.962     279.880
  H     -360.544     310.303     286.327
  H     -363.398     306.878     278.998
  H     -357.429     314.244     281.054
  H     -362.576     310.458     281.949
  H     -358.948     310.806     283.306
  H     -361.537     311.126     284.489
  H     -362.357     309.090     283.591
  H     -359.629     307.856     284.295
  H     -360.115     306.468     282.272
  H     -361.282     306.175     283.580
  H     -361.050     315.537     278.680
  H     -362.347     314.419     279.076
  P     -363.454     308.167     285.741
  C     -364.208     310.465     286.738
  O     -363.892     309.100     286.964
  O     -363.530     306.685     286.330
  O     -364.310     308.331     284.524
  H     -364.338     306.238     286.014
  H     -364.477     310.927     287.665
  H     -365.029     310.533     286.055
  H     -363.357     310.964     286.324

 6  7  8  9  10  11  12  13  14  15  25  28  32  33  34  35 0
 6-311+G(2d,p)
 ****
 36  37  40 0
 6-311+G(2d,p)
 ****
 1  2  3  4  5  16  17  18  19  20  21  22  23  24 0
 3-21G
 ****
 26  27  29  30  31  38  39 41  42  43  44  45  46  47  48 0
 3-21G
 ****


