%nproc=1
%NoSave
%Mem=1900MB
#P OB98/GEN NMR

erre ene a

0 1
  C      -46.581    -349.403    -290.455
  O      -46.475    -350.318    -291.532
  P      -44.997    -350.810    -291.925
  C      -45.527    -350.746    -294.478
  O      -44.723    -350.276    -293.410
  C      -45.742    -349.624    -295.497
  O      -46.023    -348.383    -294.816
  C      -44.541    -349.354    -296.396
  O      -44.507    -350.282    -297.467
  C      -44.804    -347.919    -296.834
  O      -45.760    -347.877    -297.912
  C      -45.390    -347.300    -295.555
  N      -42.448    -343.212    -295.092
  C      -43.199    -343.655    -296.168
  N      -43.198    -342.860    -297.262
  N      -43.888    -344.761    -296.169
  C      -43.783    -345.459    -295.014
  C      -43.061    -345.140    -293.887
  C      -42.346    -343.883    -293.879
  O      -41.747    -343.404    -292.919
  N      -43.183    -346.102    -292.919
  C      -44.005    -346.986    -293.452
  N      -44.414    -346.634    -294.713
  O      -45.171    -352.384    -292.098
  O      -43.924    -350.453    -290.938
  H      -46.600    -348.266    -297.610
  H      -44.884    -352.859    -291.294
  H      -41.948    -342.344    -295.140
  H      -44.347    -347.885    -292.960
  H      -46.177    -346.564    -295.777
  H      -43.901    -347.426    -297.199
  H      -42.669    -342.003    -297.343
  H      -43.613    -349.400    -295.816
  H      -43.739    -343.166    -298.060
  H      -46.625    -349.879    -296.099
  H      -46.496    -351.068    -294.089
  H      -45.034    -351.603    -294.950
  P      -43.339    -351.383    -297.456
  C      -43.379    -351.788    -300.021
  O      -42.640    -351.341    -298.897
  O      -44.141    -352.767    -297.451
  O      -42.409    -351.286    -296.291
  H      -43.658    -353.422    -296.911
  H      -43.035    -351.247    -300.902
  H      -44.451    -351.617    -299.897
  H      -43.198    -352.856    -300.168
  H      -47.610    -349.157    -290.296
  H      -46.033    -348.514    -290.687
  H      -46.180    -349.848    -289.568

 3  4  5  6  7  8  9  10  11  12  23  26  30  31 0
 6-311+G(2d,p)
 ****
 33  35  36  37  38 0
 6-311+G(2d,p)
 ****
 1  2  13  14  15  16  17  18  19  20  21  22  24  25 0
 3-21G
 ****
 27  28  29  32  34  39  40  41  42  43  44  45  46  47  48  49 0
 3-21G
 ****


