%nproc=1
%NoSave
%Mem=1900MB
#P OB98/GEN NMR

erre ene a

0 1
  C       56.656     -23.982     -92.564
  O       57.695     -24.126     -91.618
  P       59.046     -24.899     -91.985
  C       57.726     -27.026     -91.438
  O       58.676     -26.425     -92.306
  C       57.489     -28.491     -91.799
  O       56.972     -28.577     -93.153
  C       58.747     -29.368     -91.720
  O       58.345     -30.642     -91.206
  C       59.171     -29.488     -93.171
  O       59.990     -30.627     -93.404
  C       57.805     -29.511     -93.867
  N       57.895     -29.173     -95.279
  C       57.583     -30.182     -96.192
  O       57.380     -31.331     -95.798
  N       57.527     -29.864     -97.526
  C       57.932     -28.697     -97.923
  N       57.796     -28.398     -99.243
  C       58.506     -27.693     -97.004
  C       58.417     -27.974     -95.707
  O       60.161     -24.727     -91.004
  O       59.456     -24.318     -93.421
  H       60.378     -23.998     -93.385
  H       60.081     -30.758     -94.372
  H       58.946     -26.787     -97.394
  H       58.784     -27.288     -94.952
  H       57.340     -30.500     -93.769
  H       59.737     -28.597     -93.465
  H       59.520     -28.943     -91.073
  H       56.715     -28.887     -91.131
  H       57.362     -29.096     -99.835
  H       56.784     -26.480     -91.534
  H       57.781     -27.437     -99.582
  H       58.060     -26.933     -90.399
  P       59.316     -31.383     -90.162
  C       60.759     -32.565     -91.966
  O       60.717     -31.646     -90.895
  O       58.679     -32.857     -90.120
  O       59.369     -30.815     -88.781
  H       58.903     -33.276     -89.268
  H       61.796     -32.669     -92.297
  H       60.161     -32.199     -92.805
  H       60.393     -33.545     -91.648
  H       55.846     -23.438     -92.124
  H       56.313     -24.949     -92.867
  H       57.022     -23.450     -93.417

 3  4  5  6  7  8  9  10  11  12  13  24  27  28  29  30  32 0
 6-311+G(2d,p)
 ****
 34  35 0
 6-311+G(2d,p)
 ****
 1  2  14  15  16  17  18  19  20  21  22  23  25  26 0
 3-21G
 ****
 31  33  36  37  38  39  40  41  42  43  44  45  46 0
 3-21G
 ****


