%nproc=1
%NoSave
%Mem=1900MB
#P OB98/GEN NMR

erre ene a

0 1
  C      901.605     610.441    -459.796
  O      902.881     610.481    -460.397
  H      900.966     611.192    -460.275
  H      901.688     610.683    -458.732
  H      901.157     609.457    -459.922
  P      903.959     609.425    -459.860
  C      905.203     609.227    -462.149
  O      905.267     609.615    -460.775
  C      904.716     610.404    -463.007
  O      905.553     611.565    -462.727
  C      904.794     610.131    -464.527
  O      903.746     610.870    -465.171
  C      906.142     610.747    -464.869
  O      906.242     610.951    -466.265
  C      906.077     612.003    -463.997
  N      909.213     615.632    -465.775
  C      907.931     615.292    -466.080
  N      907.171     614.323    -465.563
  C      907.829     613.668    -464.589
  C      909.118     613.898    -464.150
  C      909.824     614.923    -464.787
  N      911.139     615.263    -464.482
  N      909.460     613.009    -463.151
  C      908.380     612.257    -462.971
  N      907.371     612.628    -463.827
  O      903.359     608.020    -460.330
  O      904.220     609.463    -458.389
  H      905.554     611.570    -466.578
  H      902.814     607.632    -459.629
  H      907.477     615.898    -466.873
  H      908.278     611.444    -462.273
  H      905.392     612.762    -464.400
  H      906.962     610.099    -464.570
  H      904.713     609.082    -464.775
  H      903.687     610.671    -462.694
  H      904.510     608.379    -462.249
  H      906.206     608.927    -462.477
  H      911.570     615.993    -465.003
  H      911.627     614.710    -463.777
  P      902.632     610.078    -466.011
  C      900.438     611.504    -465.973
  O      901.601     611.113    -466.691
  O      901.740     609.412    -464.857
  O      903.175     609.011    -466.924
  H      901.574     608.491    -465.068
  H      899.867     612.189    -466.564
  H      900.726     611.977    -465.058
  H      899.845     610.640    -465.757

 6  7  8  9  10  11  12  13  14  15  25  28  32  33  34  35 0
 6-311+G(2d,p)
 ****
 36  37  40 0
 6-311+G(2d,p)
 ****
 1  2  3  4  5  16  17  18  19  20  21  22  23  24 0
 3-21G
 ****
 26  27  29  30  31  38  39 41  42  43  44  45  46  47  48 0
 3-21G
 ****


