%nproc=1
%NoSave
%Mem=1900MB
#P OB98/GEN NMR

erre ene a

0 1
  C     -262.531     189.363     606.174
  O     -261.990     188.566     607.211
  H     -261.853     190.197     605.983
  H     -263.502     189.764     606.471
  H     -262.637     188.772     605.256
  P     -262.856     187.290     607.656
  C     -260.731     186.190     608.657
  O     -262.068     186.624     608.888
  C     -259.930     186.221     609.962
  O     -259.600     187.580     610.326
  C     -260.656     185.609     611.156
  O     -260.519     184.197     611.169
  C     -259.935     186.274     612.319
  O     -258.680     185.624     612.603
  C     -259.700     187.692     611.779
  N     -260.770     191.750     614.589
  C     -259.589     191.069     614.421
  N     -258.533     191.500     615.154
  N     -259.435     190.048     613.619
  C     -260.576     189.704     612.975
  C     -261.807     190.309     613.045
  C     -261.953     191.462     613.919
  O     -262.963     192.140     614.067
  N     -262.718     189.686     612.227
  C     -262.042     188.683     611.694
  N     -260.743     188.647     612.133
  O     -262.634     186.243     606.468
  O     -264.308     187.557     607.888
  H     -258.846     184.719     612.912
  H     -263.427     185.689     606.380
  H     -260.820     192.538     615.210
  H     -262.447     187.966     610.991
  H     -258.745     188.123     612.129
  H     -260.518     186.241     613.236
  H     -258.659     192.043     616.007
  H     -261.719     185.904     611.163
  H     -257.661     191.003     615.055
  H     -258.985     185.695     609.776
  H     -260.256     186.867     607.936
  H     -260.745     185.176     608.250
  P     -261.432     183.370     612.207
  C     -261.883     181.327     610.672
  O     -261.243     181.822     611.842
  O     -262.927     183.690     611.725
  O     -261.215     183.723     613.645
  H     -263.561     183.464     612.440
  H     -261.666     180.285     610.561
  H     -261.523     181.859     609.816
  H     -262.941     181.464     610.759

 6  7  8  9  10  11  12  13  14  15  26  29  33  34 0
 6-311+G(2d,p)
 ****
 36  38  39  40  41 0
 6-311+G(2d,p)
 ****
 1  2  3  4  5  16  17  18  19  20  21  22  23  24  25 0
 3-21G
 ****
 27  28  30  31  32  35  37  42  43  44  45  46  47 0
 3-21G
 ****
 48  49 0
 3-21G
 ****


