%nproc=1
%NoSave
%Mem=1900MB
#P OB98/GEN NMR

erre ene a

0 1
  C      -53.890     845.859    -348.033
  O      -54.572     845.063    -348.992
  H      -54.026     845.443    -347.029
  H      -52.825     845.865    -348.278
  H      -54.262     846.885    -348.061
  P      -56.164     844.952    -348.826
  C      -57.763     843.431    -347.445
  O      -56.425     843.821    -347.722
  C      -57.805     842.441    -346.288
  O      -57.360     841.140    -346.735
  C      -56.925     842.811    -345.099
  O      -57.533     843.787    -344.261
  C      -56.817     841.448    -344.409
  O      -58.019     841.202    -343.637
  C      -56.741     840.484    -345.591
  N      -52.564     837.949    -344.037
  C      -53.798     838.084    -343.491
  N      -54.870     838.749    -343.979
  C      -54.572     839.315    -345.165
  C      -53.374     839.259    -345.852
  C      -52.331     838.532    -345.241
  N      -51.057     838.459    -345.771
  N      -53.452     839.979    -347.041
  C      -54.669     840.482    -347.044
  N      -55.384     840.100    -345.936
  O      -56.618     844.253    -350.197
  O      -56.872     846.247    -348.601
  H      -58.098     841.947    -343.007
  H      -56.914     844.942    -350.824
  H      -53.951     837.580    -342.542
  H      -55.061     841.118    -347.822
  H      -57.309     839.568    -345.413
  H      -55.976     841.397    -343.712
  H      -55.923     843.120    -345.428
  H      -58.865     842.338    -345.978
  H      -58.205     842.974    -348.344
  H      -50.326     838.356    -345.070
  H      -50.872     839.132    -346.516
  H      -58.346     844.332    -347.199
  P      -56.629     845.020    -343.779
  C      -55.871     845.887    -341.468
  O      -56.327     844.770    -342.214
  O      -57.679     846.236    -343.768
  O      -55.449     845.313    -344.631
  H      -57.329     846.964    -344.340
  H      -55.708     845.595    -340.452
  H      -56.607     846.663    -341.502
  H      -54.954     846.246    -341.888

 6  7  8  9  10  11  12  13  14  15  25  28  32  33  34  35 0
 6-311+G(2d,p)
 ****
 36  39  40 0
 6-311+G(2d,p)
 ****
 1  2  3  4  5  16  17  18  19  20  21  22  23  24 0
 3-21G
 ****
 26  27  29  30  31  37  38  41  42  43  44  45  46  47  48 0
 3-21G
 ****


