%nproc=1
%NoSave
%Mem=1900MB
#P OB98/GEN NMR

erre ene a

0 1
  C      -28.325     -60.358      66.048
  O      -28.569     -61.446      66.924
  P      -27.572     -62.702      66.846
  C      -27.594     -63.418      69.342
  O      -28.001     -63.715      68.013
  C      -28.545     -64.052      70.358
  O      -29.829     -63.369      70.290
  C      -28.810     -65.550      70.138
  O      -28.967     -66.136      71.434
  C      -30.124     -65.531      69.379
  O      -30.805     -66.774      69.372
  C      -30.836     -64.387      70.095
  N      -35.843     -63.367      70.220
  C      -34.994     -63.829      71.166
  N      -33.670     -64.067      71.062
  C      -33.232     -63.770      69.827
  C      -33.979     -63.311      68.756
  C      -35.349     -63.106      68.988
  N      -36.214     -62.643      68.017
  N      -33.188     -63.145      67.639
  C      -31.980     -63.501      68.027
  N      -31.954     -63.865      69.346
  O      -26.189     -62.099      67.373
  O      -27.434     -63.315      65.487
  H      -31.117     -66.988      70.273
  H      -25.433     -62.457      66.871
  H      -35.438     -64.033      72.136
  H      -31.103     -63.524      67.397
  H      -31.204     -64.687      71.083
  H      -29.928     -65.269      68.332
  H      -27.998     -66.060      69.610
  H      -28.139     -63.883      71.363
  H      -27.605     -62.334      69.491
  H      -37.200     -62.722      68.222
  H      -35.881     -62.652      67.061
  H      -26.567     -63.767      69.493
  P      -27.989     -67.332      71.868
  C      -27.617     -66.641      74.315
  O      -28.286     -67.524      73.435
  O      -26.578     -66.574      71.899
  O      -28.025     -68.548      71.010
  H      -26.623     -65.753      72.420
  H      -27.983     -66.817      75.330
  H      -27.822     -65.602      74.039
  H      -26.541     -66.832      74.289
  H      -29.061     -59.599      66.209
  H      -28.378     -60.697      65.035
  H      -27.352     -59.957      66.240

 3  4  5  6  7  8  9  10  11  12  22  25  29  30  31  32 0
 6-311+G(2d,p)
 ****
 33  36  37 0
 6-311+G(2d,p)
 ****
 1  2  13  14  15  16  17  18  19  20  21  23  24  26 0
 3-21G
 ****
 27  28  34  35  38  39  40  41  42  43  44  45  46  47  48 0
 3-21G
 ****


