%nproc=1
%NoSave
%Mem=1900MB
#P OB98/GEN NMR

erre ene a

0 1
  C      696.884     257.088    -975.707
  O      696.701     255.691    -975.792
  H      697.836     257.345    -976.182
  H      696.929     257.400    -974.657
  H      696.082     257.614    -976.223
  P      695.402     255.023    -975.132
  C      694.848     253.559    -977.170
  O      695.280     253.568    -975.812
  C      695.026     252.169    -977.798
  O      696.439     251.814    -977.774
  C      694.250     251.068    -977.076
  O      693.554     250.259    -978.024
  C      695.342     250.235    -976.401
  O      694.949     248.894    -976.144
  C      696.489     250.422    -977.413
  N      697.776     250.039    -976.845
  C      698.011     248.670    -976.690
  O      697.145     247.858    -977.030
  N      699.179     248.260    -976.112
  C      700.028     249.133    -975.671
  N      701.151     248.665    -975.079
  C      699.811     250.595    -975.786
  C      698.680     250.976    -976.388
  O      694.165     255.856    -975.203
  O      695.838     254.675    -973.630
  H      695.733     248.399    -975.804
  H      695.029     254.593    -973.074
  H      700.546     251.290    -975.403
  H      698.433     252.027    -976.510
  H      696.318     249.821    -978.313
  H      695.615     250.703    -975.448
  H      693.539     251.442    -976.340
  H      694.739     252.234    -978.850
  H      701.258     247.654    -975.014
  H      695.426     254.310    -977.723
  H      701.870     249.244    -974.680
  H      693.785     253.828    -977.195
  P      691.956     250.390    -978.036
  C      691.257     250.117    -980.518
  O      691.384     249.501    -979.247
  O      691.715     251.903    -978.519
  O      691.327     250.138    -976.701
  H      691.372     252.440    -977.781
  H      690.867     249.410    -981.220
  H      692.217     250.455    -980.848
  H      690.591     250.951    -980.445

 6  7  8  9  10  11  12  13  14  15  16  26  30  31  32  33  35 0
 6-311+G(2d,p)
 ****
 37  38 0
 6-311+G(2d,p)
 ****
 1  2  3  4  5  17  18  19  20  21  22  23  24  25 0
 3-21G
 ****
 27  28  29  34  36  39  40  41  42  43  44  45  46 0
 3-21G
 ****


