%nproc=1
%NoSave
%Mem=1900MB
#P OB98/GEN NMR

erre ene a

0 1
  C      144.039    -362.036    -265.740
  O      145.144    -362.908    -265.867
  H      144.369    -361.018    -265.958
  H      143.656    -362.070    -264.718
  H      143.250    -362.312    -266.443
  P      144.855    -364.475    -265.675
  C      146.918    -364.889    -267.192
  O      146.237    -365.233    -265.993
  C      147.834    -366.026    -267.637
  O      148.704    -366.395    -266.525
  C      147.094    -367.299    -268.081
  O      147.840    -367.896    -269.148
  C      147.208    -368.198    -266.860
  O      147.039    -369.578    -267.180
  C      148.609    -367.824    -266.380
  N      150.982    -371.229    -263.534
  C      150.985    -371.046    -264.902
  N      151.738    -371.899    -265.628
  N      150.310    -370.105    -265.509
  C      149.629    -369.301    -264.654
  C      149.538    -369.381    -263.287
  C      150.271    -370.445    -262.631
  O      150.289    -370.670    -261.426
  N      148.722    -368.396    -262.788
  C      148.321    -367.724    -263.854
  N      148.844    -368.237    -265.009
  O      143.937    -364.821    -266.939
  O      144.202    -364.852    -264.389
  H      147.833    -369.871    -267.674
  H      142.993    -364.752    -266.699
  H      151.508    -371.979    -263.121
  H      147.657    -366.873    -263.843
  H      149.395    -368.285    -266.989
  H      146.451    -367.924    -266.116
  H      152.320    -372.618    -265.230
  H      146.061    -367.132    -268.397
  H      151.787    -371.753    -266.632
  H      148.487    -365.655    -268.437
  H      147.521    -363.990    -267.013
  H      146.183    -364.673    -267.974
  P      147.604    -367.347    -270.632
  C      149.891    -368.168    -271.556
  O      148.476    -368.236    -271.638
  O      148.392    -365.950    -270.623
  O      146.168    -367.167    -271.001
  H      147.988    -365.337    -271.266
  H      150.322    -368.816    -272.290
  H      150.207    -368.474    -270.580
  H      150.211    -367.163    -271.736

 6  7  8  9  10  11  12  13  14  15  26  29  33  34 0
 6-311+G(2d,p)
 ****
 36  38  39  40  41 0
 6-311+G(2d,p)
 ****
 1  2  3  4  5  16  17  18  19  20  21  22  23  24  25 0
 3-21G
 ****
 27  28  30  31  32  35  37  42  43  44  45  46  47 0
 3-21G
 ****
 48  49 0
 3-21G
 ****


