%nproc=1
%NoSave
%Mem=1900MB
#P OB98/GEN NMR

erre ene a

0 1
  C     -251.353    -950.995     291.290
  O     -251.006    -950.513     290.007
  H     -250.805    -950.424     292.049
  H     -251.083    -952.051     291.383
  H     -252.429    -950.871     291.470
  P     -251.829    -951.097     288.765
  C     -249.717    -950.751     287.243
  O     -250.751    -951.612     287.690
  C     -248.712    -951.537     286.386
  O     -248.189    -952.663     287.097
  C     -249.339    -952.151     285.129
  O     -249.667    -951.196     284.147
  C     -248.221    -953.105     284.721
  O     -247.166    -952.409     284.041
  C     -247.729    -953.621     286.097
  N     -248.217    -954.973     286.380
  C     -247.533    -956.011     285.739
  O     -246.580    -955.758     284.983
  N     -247.963    -957.307     285.933
  C     -248.969    -957.536     286.728
  N     -249.344    -958.833     286.872
  C     -249.695    -956.479     287.441
  C     -249.266    -955.227     287.230
  O     -252.404    -949.770     288.072
  O     -252.858    -952.121     289.106
  H     -246.466    -953.058     283.848
  H     -251.726    -949.102     287.867
  H     -250.523    -956.722     288.104
  H     -249.752    -954.391     287.721
  H     -246.639    -953.637     286.134
  H     -248.580    -953.881     284.038
  H     -250.211    -952.758     285.399
  H     -247.883    -950.861     286.127
  H     -248.839    -959.533     286.337
  H     -249.204    -950.282     288.086
  H     -250.127    -959.148     287.434
  H     -250.172    -949.949     286.649
  P     -251.178    -951.016     283.641
  C     -250.501    -949.454     281.697
  O     -251.076    -950.702     282.067
  O     -251.993    -950.056     284.431
  O     -251.733    -952.520     283.653
  H     -251.253    -953.150     283.082
  H     -250.491    -949.368     280.631
  H     -249.499    -949.399     282.068
  H     -251.080    -948.657     282.114

 6  7  8  9  10  11  12  13  14  15  16  26  30  31  32  33  35 0
 6-311+G(2d,p)
 ****
 37  38 0
 6-311+G(2d,p)
 ****
 1  2  3  4  5  17  18  19  20  21  22  23  24  25 0
 3-21G
 ****
 27  28  29  34  36  39  40  41  42  43  44  45  46 0
 3-21G
 ****


