%nproc=1
%NoSave
%Mem=1900MB
#P OB98/GEN NMR

erre ene a

0 1
  C     -213.320      11.706     -19.092
  O     -212.032      11.467     -19.626
  H     -213.815      12.469     -19.698
  H     -213.239      12.069     -18.063
  H     -213.917      10.789     -19.119
  P     -211.128      10.388     -18.856
  C     -209.859       9.808     -21.042
  O     -209.768      10.261     -19.700
  C     -208.890      10.582     -21.933
  O     -209.402      11.902     -22.217
  C     -207.501      10.773     -21.335
  O     -206.693       9.628     -21.543
  C     -207.011      11.988     -22.107
  O     -206.518      11.621     -23.412
  C     -208.288      12.832     -22.224
  N     -207.350      17.602     -20.859
  C     -207.099      16.950     -22.049
  N     -206.455      17.664     -22.999
  N     -207.438      15.712     -22.285
  C     -208.047      15.115     -21.233
  C     -208.366      15.658     -20.010
  C     -208.012      17.042     -19.774
  O     -208.265      17.696     -18.767
  N     -208.999      14.743     -19.208
  C     -209.026      13.638     -19.931
  N     -208.446      13.810     -21.160
  O     -211.871       8.999     -19.151
  O     -210.960      10.619     -17.393
  H     -205.756      11.024     -23.310
  H     -211.731       8.396     -18.397
  H     -207.081      18.564     -20.744
  H     -209.452      12.698     -19.610
  H     -208.332      13.384     -23.170
  H     -206.188      12.487     -21.594
  H     -205.890      18.468     -22.765
  H     -207.568      11.022     -20.269
  H     -206.246      17.186     -23.867
  H     -208.826      10.047     -22.889
  H     -210.882       9.964     -21.402
  H     -209.628       8.738     -21.077
  P     -206.358       8.709     -20.268
  C     -205.935       6.698     -21.861
  O     -205.441       7.508     -20.803
  O     -207.753       7.992     -19.953
  O     -205.827       9.452     -19.089
  H     -207.744       7.627     -19.047
  H     -205.212       5.947     -22.102
  H     -206.117       7.307     -22.722
  H     -206.848       6.230     -21.556

 6  7  8  9  10  11  12  13  14  15  26  29  33  34 0
 6-311+G(2d,p)
 ****
 36  38  39  40  41 0
 6-311+G(2d,p)
 ****
 1  2  3  4  5  16  17  18  19  20  21  22  23  24  25 0
 3-21G
 ****
 27  28  30  31  32  35  37  42  43  44  45  46  47 0
 3-21G
 ****
 48  49 0
 3-21G
 ****


