%nproc=1
%NoSave
%Mem=1900MB
#P OB98/GEN NMR

erre ene a

0 1
  C      292.561     178.648     232.148
  O      291.522     179.158     232.960
  P      291.587     180.649     233.534
  C      290.342     182.097     231.829
  O      291.614     181.650     232.278
  C      290.308     183.616     231.680
  O      290.522     184.225     232.983
  C      291.365     184.191     230.726
  O      290.776     185.334     230.097
  C      292.460     184.645     231.677
  O      293.326     185.618     231.102
  C      291.618     185.154     232.841
  N      294.913     187.929     235.592
  C      294.399     188.108     234.357
  N      293.547     187.310     233.683
  C      293.225     186.232     234.414
  C      293.692     185.897     235.675
  C      294.569     186.815     236.283
  N      295.074     186.664     237.556
  N      293.177     184.678     236.073
  C      292.415     184.289     235.072
  N      292.364     185.227     234.078
  O      292.655     180.895     234.547
  O      290.134     180.889     234.156
  H      292.866     186.480     231.106
  H      290.182     180.863     235.132
  H      294.709     189.014     233.844
  H      291.885     183.349     235.015
  H      291.196     186.147     232.643
  H      293.070     183.784     231.974
  H      291.724     183.479     229.980
  H      289.301     183.906     231.352
  H      289.595     181.790     232.568
  H      295.583     187.444     237.941
  H      294.632     185.996     238.184
  H      290.097     181.620     230.873
  P      291.160     185.697     228.583
  C      289.064     184.729     227.483
  O      290.462     184.595     227.658
  O      292.613     185.920     228.330
  O      290.299     187.018     228.287
  H      290.663     187.475     227.507
  H      288.547     184.315     228.353
  H      288.763     184.171     226.591
  H      288.780     185.778     227.359
  H      292.333     177.641     231.867
  H      293.481     178.666     232.693
  H      292.655     179.251     231.269

 3  4  5  6  7  8  9  10  11  12  22  25  29  30  31  32 0
 6-311+G(2d,p)
 ****
 33  36  37 0
 6-311+G(2d,p)
 ****
 1  2  13  14  15  16  17  18  19  20  21  23  24  26 0
 3-21G
 ****
 27  28  34  35  38  39  40  41  42  43  44  45  46  47  48 0
 3-21G
 ****


