%nproc=1
%NoSave
%Mem=1900MB
#P OB98/GEN NMR

erre ene a

0 1
  C      202.711     -77.877     -21.246
  O      201.857     -77.392     -20.234
  P      202.372     -76.332     -19.149
  C      201.600     -77.583     -17.032
  O      201.394     -76.455     -17.879
  C      200.410     -77.757     -16.081
  O      200.335     -76.592     -15.203
  C      199.064     -77.876     -16.824
  O      198.284     -79.018     -16.460
  C      198.411     -76.530     -16.556
  O      197.005     -76.528     -16.718
  C      198.949     -76.198     -15.160
  N      198.781     -74.787     -14.817
  C      198.776     -74.460     -13.465
  O      198.914     -75.270     -12.552
  N      198.544     -73.145     -13.168
  C      198.206     -72.171     -14.058
  O      197.913     -71.035     -13.713
  C      198.187     -72.584     -15.472
  C      198.495     -73.845     -15.786
  O      202.554     -74.937     -19.650
  O      203.719     -77.002     -18.597
  H      196.636     -77.219     -16.134
  H      203.603     -77.878     -18.192
  H      198.536     -72.893     -12.190
  H      197.913     -71.837     -16.199
  H      198.487     -74.180     -16.820
  H      198.463     -76.800     -14.389
  H      198.814     -75.813     -17.282
  H      199.220     -77.995     -17.904
  H      200.601     -78.644     -15.468
  H      202.506     -77.417     -16.444
  H      201.759     -78.478     -17.639
  P      197.762     -80.139     -17.478
  C      195.224     -79.585     -17.583
  O      196.235     -80.460     -17.126
  O      198.645     -81.336     -17.614
  O      197.657     -79.356     -18.873
  H      197.800     -79.980     -19.606
  H      194.380     -79.626     -16.887
  H      194.882     -79.910     -18.567
  H      195.580     -78.552     -17.643
  H      202.177     -78.570     -21.862
  H      203.549     -78.370     -20.799
  H      203.055     -77.059     -21.845

 3  4  5  6  7  8  9  10  11  12  13  23  28  29  30  31  32 0
 6-311+G(2d,p)
 ****
 33  34 0
 6-311+G(2d,p)
 ****
 1  2  14  15  16  17  18  19  20  21  22  24  25  26  27 0
 3-21G
 ****
 35  36  37  38  39  40  41  42  43  44  45 0
 3-21G
 ****


