%nproc=1
%NoSave
%Mem=1900MB
#P OB98/GEN NMR

erre ene a

0 1
  C     -135.883    -199.756     123.472
  O     -135.190    -199.615     124.717
  P     -134.257    -200.833     125.191
  C     -132.571    -200.000     123.401
  O     -132.757    -200.555     124.696
  C     -131.141    -199.473     123.216
  O     -130.919    -198.280     124.015
  C     -130.062    -200.484     123.621
  O     -128.904    -200.256     122.809
  C     -129.750    -200.076     125.047
  O     -128.486    -200.593     125.478
  C     -129.830    -198.557     124.923
  N     -127.571    -196.130     128.725
  C     -127.034    -196.699     127.583
  N     -125.701    -196.565     127.420
  N     -127.741    -197.334     126.688
  C     -129.067    -197.357     126.973
  C     -129.719    -196.840     128.070
  C     -128.921    -196.161     129.066
  O     -129.338    -195.652     130.102
  N     -131.067    -197.083     128.012
  C     -131.229    -197.754     126.882
  N     -130.051    -197.908     126.201
  O     -134.741    -202.040     124.255
  O     -134.407    -201.178     126.636
  H     -128.224    -200.087     126.279
  H     -135.249    -202.683     124.785
  H     -126.980    -195.663     129.392
  H     -132.168    -198.138     126.517
  H     -128.913    -198.120     124.500
  H     -130.521    -200.460     125.723
  H     -125.104    -196.046     128.045
  H     -130.357    -201.536     123.535
  H     -125.284    -196.933     126.571
  H     -131.007    -199.193     122.165
  H     -133.283    -199.181     123.239
  H     -132.817    -200.758     122.652
  P     -128.938    -200.823     121.312
  C     -130.255    -199.176     119.797
  O     -129.007    -199.540     120.353
  O     -130.401    -201.464     121.186
  O     -127.868    -201.811     120.990
  H     -130.411    -202.158     120.503
  H     -130.650    -198.312     120.339
  H     -130.978    -199.994     119.841
  H     -130.105    -198.900     118.746
  H     -136.462    -198.876     123.284
  H     -136.531    -200.606     123.519
  H     -135.174    -199.892     122.682

 3  4  5  6  7  8  9  10  11  12  23  26  30  31 0
 6-311+G(2d,p)
 ****
 33  35  36  37  38 0
 6-311+G(2d,p)
 ****
 1  2  13  14  15  16  17  18  19  20  21  22  24  25 0
 3-21G
 ****
 27  28  29  32  34  39  40  41  42  43  44  45  46  47  48  49 0
 3-21G
 ****


