%nproc=1
%NoSave
%Mem=1900MB
#P OB98/GEN NMR

erre ene a

0 1
  C     -217.969    1554.010     -72.969
  O     -218.627    1553.555     -74.142
  P     -220.227    1553.635     -74.169
  C     -220.352    1555.977     -75.338
  O     -220.630    1554.564     -75.413
  C     -220.000    1556.505     -76.724
  O     -218.758    1555.934     -77.181
  C     -221.020    1556.161     -77.811
  O     -222.182    1556.973     -77.698
  C     -220.189    1556.411     -79.062
  O     -220.119    1557.833     -79.344
  C     -218.806    1555.895     -78.641
  N     -217.471    1552.921     -82.583
  C     -217.663    1554.247     -82.483
  N     -218.036    1554.965     -81.402
  C     -218.221    1554.155     -80.347
  C     -218.086    1552.786     -80.308
  C     -217.697    1552.146     -81.487
  N     -217.509    1550.797     -81.613
  N     -218.389    1552.306     -79.043
  C     -218.672    1553.369     -78.330
  N     -218.566    1554.532     -79.071
  O     -220.568    1554.550     -72.894
  O     -220.924    1552.310     -74.120
  H     -221.023    1558.132     -79.553
  H     -221.408    1554.256     -72.484
  H     -217.473    1554.833     -83.404
  H     -218.947    1553.370     -77.289
  H     -218.004    1556.506     -79.019
  H     -220.591    1555.915     -79.950
  H     -221.309    1555.108     -77.758
  H     -219.889    1557.598     -76.638
  H     -219.493    1556.125     -74.660
  H     -217.371    1550.393     -82.517
  H     -217.807    1550.201     -80.821
  H     -221.218    1556.488     -74.913
  P     -223.479    1556.563     -78.546
  C     -224.499    1555.488     -76.455
  O     -224.659    1556.480     -77.460
  O     -223.170    1555.017     -78.868
  O     -223.753    1557.426     -79.741
  H     -222.900    1554.536     -78.079
  H     -225.320    1555.555     -75.776
  H     -223.554    1555.648     -75.923
  H     -224.510    1554.484     -76.910
  H     -216.911    1553.900     -73.088
  H     -218.296    1553.432     -72.130
  H     -218.204    1555.041     -72.805

 3  4  5  6  7  8  9  10  11  12  22  25  29  30  31  32 0
 6-311+G(2d,p)
 ****
 33  36  37 0
 6-311+G(2d,p)
 ****
 1  2  13  14  15  16  17  18  19  20  21  23  24  26 0
 3-21G
 ****
 27  28  34  35  38  39  40  41  42  43  44  45  46  47  48 0
 3-21G
 ****


