%nproc=1
%NoSave
%Mem=1900MB
#P OB98/GEN NMR

erre ene a

0 1
  C       -2.201     641.364    -251.213
  O       -0.918     641.911    -250.971
  H       -2.600     641.804    -252.128
  H       -2.870     641.593    -250.384
  H       -2.128     640.279    -251.344
  P       -0.140     641.375    -249.673
  C        1.692     640.122    -251.028
  O        1.387     641.171    -250.113
  C        3.041     640.403    -251.696
  O        3.009     641.700    -252.335
  C        4.210     640.453    -250.725
  O        4.650     639.163    -250.336
  C        5.236     641.229    -251.543
  O        5.942     640.367    -252.445
  C        4.363     642.214    -252.324
  N        6.922     646.631    -252.185
  C        7.087     645.512    -252.922
  N        6.354     644.380    -252.910
  C        5.334     644.489    -252.038
  C        5.033     645.565    -251.220
  C        5.882     646.680    -251.314
  N        5.723     647.811    -250.544
  N        3.933     645.285    -250.437
  C        3.570     644.063    -250.779
  N        4.385     643.543    -251.745
  O       -0.694     639.882    -249.514
  O       -0.344     642.181    -248.431
  H        6.674     639.982    -251.925
  H       -1.383     639.862    -248.822
  H        7.934     645.529    -253.610
  H        2.740     643.513    -250.351
  H        4.679     642.309    -253.370
  H        5.966     641.709    -250.894
  H        3.941     641.052    -249.845
  H        3.210     639.642    -252.472
  H        0.915     640.070    -251.796
  H        1.721     639.174    -250.485
  H        6.404     648.546    -250.619
  H        5.019     647.810    -249.818
  P        5.633     639.065    -249.077
  C        4.158     638.215    -247.101
  O        5.083     637.896    -248.130
  O        5.335     640.397    -248.243
  O        7.081     638.941    -249.427
  H        6.155     640.726    -247.831
  H        3.896     637.325    -246.568
  H        3.278     638.644    -247.533
  H        4.603     638.917    -246.427

 6  7  8  9  10  11  12  13  14  15  25  28  32  33  34  35 0
 6-311+G(2d,p)
 ****
 36  37  40 0
 6-311+G(2d,p)
 ****
 1  2  3  4  5  16  17  18  19  20  21  22  23  24 0
 3-21G
 ****
 26  27  29  30  31  38  39 41  42  43  44  45  46  47  48 0
 3-21G
 ****


