%nproc=1
%NoSave
%Mem=1900MB
#P OB98/GEN NMR

erre ene a

0 1
  C     -658.761     -40.155     137.078
  O     -658.688     -39.143     136.093
  P     -657.737     -39.305     134.817
  C     -655.780     -37.926     135.896
  O     -656.222     -39.118     135.290
  C     -654.292     -38.071     136.252
  O     -654.137     -38.919     137.402
  C     -653.500     -38.686     135.100
  O     -652.912     -37.672     134.296
  C     -652.481     -39.554     135.821
  O     -651.370     -38.753     136.274
  C     -653.306     -40.056     137.032
  N     -654.184     -41.221     136.838
  C     -654.357     -42.137     137.875
  O     -653.835     -42.021     138.980
  N     -655.141     -43.227     137.578
  C     -655.793     -43.451     136.399
  O     -656.281     -44.527     136.074
  C     -655.793     -42.323     135.458
  C     -654.985     -41.294     135.703
  O     -658.025     -37.975     133.976
  O     -657.956     -40.542     134.011
  H     -651.720     -38.129     136.937
  H     -658.660     -38.157     133.258
  H     -655.156     -43.960     138.282
  H     -656.402     -42.403     134.569
  H     -654.938     -40.468     134.995
  H     -652.652     -40.279     137.886
  H     -652.061     -40.307     135.159
  H     -654.148     -39.340     134.497
  H     -653.886     -37.078     136.501
  H     -656.365     -37.716     136.796
  H     -655.925     -37.085     135.213
  P     -652.983     -37.791     132.704
  C     -650.450     -38.203     132.747
  O     -651.704     -38.670     132.289
  O     -653.139     -36.498     131.967
  O     -654.230     -38.768     132.459
  H     -655.030     -38.244     132.257
  H     -649.702     -38.963     132.549
  H     -650.488     -37.996     133.816
  H     -650.177     -37.292     132.199
  H     -659.447     -39.859     137.844
  H     -657.792     -40.306     137.506
  H     -659.099     -41.066     136.629

 3  4  5  6  7  8  9  10  11  12  13  23  28  29  30  31  32 0
 6-311+G(2d,p)
 ****
 33  34 0
 6-311+G(2d,p)
 ****
 1  2  14  15  16  17  18  19  20  21  22  24  25  26  27 0
 3-21G
 ****
 35  36  37  38  39  40  41  42  43  44  45 0
 3-21G
 ****


