%nproc=1
%NoSave
%Mem=1900MB
#P OB98/GEN NMR

erre ene a

0 1
  C     -899.439     616.166    -240.201
  O     -898.199     615.603    -240.609
  P     -898.219     614.315    -241.557
  C     -896.569     614.930    -243.447
  O     -897.939     614.772    -243.071
  C     -896.139     616.400    -243.293
  O     -896.229     616.789    -241.908
  C     -894.689     616.698    -243.720
  O     -894.429     617.028    -245.066
  C     -894.389     617.942    -242.893
  O     -894.899     619.118    -243.584
  C     -895.189     617.734    -241.613
  N     -891.019     618.592    -238.750
  C     -891.569     619.289    -239.769
  N     -892.689     618.994    -240.468
  C     -893.239     617.864    -240.025
  C     -892.789     617.040    -239.005
  C     -891.609     617.460    -238.350
  N     -891.039     616.751    -237.321
  N     -893.619     615.948    -238.833
  C     -894.549     616.095    -239.764
  N     -894.369     617.238    -240.498
  O     -899.369     613.382    -241.362
  O     -896.839     613.581    -241.159
  H     -894.619     619.882    -243.046
  H     -896.989     612.601    -241.174
  H     -891.069     620.214    -240.054
  H     -895.349     615.399    -239.930
  H     -895.669     618.663    -241.266
  H     -893.319     618.105    -242.761
  H     -894.029     615.877    -243.401
  H     -896.839     617.037    -243.870
  H     -896.439     614.613    -244.481
  H     -890.179     617.095    -236.927
  H     -891.429     615.846    -237.043
  H     -895.969     614.248    -242.810
  P     -894.349     615.906    -246.220
  C     -895.729     617.076    -248.114
  O     -895.669     616.090    -247.096
  O     -894.149     614.512    -245.715
  O     -893.199     616.452    -247.167
  H     -893.429     617.258    -247.665
  H     -896.609     616.890    -248.740
  H     -894.839     617.033    -248.743
  H     -895.789     618.074    -247.668
  H     -899.256     617.015    -239.575
  H     -900.000     615.436    -239.657
  H     -899.993     616.471    -241.064

 3  4  5  6  7  8  9  10  11  12  22  25  29  30  31  32 0
 6-311+G(2d,p)
 ****
 33  36  37 0
 6-311+G(2d,p)
 ****
 1  2  13  14  15  16  17  18  19  20  21  23  24  26 0
 3-21G
 ****
 27  28  34  35  38  39  40  41  42  43  44  45  46  47  48 0
 3-21G
 ****


