%nproc=1
%NoSave
%Mem=1900MB
#P OB98/GEN NMR

erre ene a

0 1
  C        8.378    -664.309     251.984
  O        7.226    -663.560     252.348
  P        5.862    -664.381     252.559
  C        3.537    -663.791     253.575
  O        4.916    -663.477     253.486
  C        2.843    -662.869     254.587
  O        3.264    -663.214     255.922
  C        3.162    -661.392     254.414
  O        2.450    -660.829     253.321
  C        2.728    -660.868     255.785
  O        1.304    -660.715     255.834
  C        3.179    -662.007     256.722
  N        5.682    -659.447     260.408
  C        4.386    -659.450     260.033
  N        3.796    -660.152     259.024
  C        4.707    -660.885     258.380
  C        6.067    -660.969     258.626
  C        6.566    -660.216     259.703
  N        7.878    -660.215     260.077
  N        6.688    -661.841     257.752
  C        5.710    -662.279     256.976
  N        4.485    -661.759     257.334
  O        6.299    -665.568     253.535
  O        5.226    -664.895     251.296
  H        1.055    -660.537     256.767
  H        5.797    -666.389     253.349
  H        3.719    -658.813     260.611
  H        5.834    -662.978     256.152
  H        2.467    -662.179     257.538
  H        3.174    -659.887     256.026
  H        4.240    -661.246     254.272
  H        1.761    -663.041     254.518
  H        3.413    -664.825     253.895
  H        8.184    -659.512     260.753
  H        8.553    -660.654     259.466
  H        3.076    -663.683     252.580
  P        2.918    -659.386     252.808
  C        2.625    -658.131     250.564
  O        2.431    -659.350     251.261
  O        4.505    -659.579     252.664
  O        2.470    -658.243     253.645
  H        4.735    -660.403     252.191
  H        2.308    -658.268     249.541
  H        3.681    -657.847     250.585
  H        2.016    -657.334     251.029
  H        9.213    -663.649     251.875
  H        8.198    -664.812     251.057
  H        8.590    -665.030     252.746

 3  4  5  6  7  8  9  10  11  12  22  25  29  30  31  32 0
 6-311+G(2d,p)
 ****
 33  36  37 0
 6-311+G(2d,p)
 ****
 1  2  13  14  15  16  17  18  19  20  21  23  24  26 0
 3-21G
 ****
 27  28  34  35  38  39  40  41  42  43  44  45  46  47  48 0
 3-21G
 ****


