%nproc=1
%NoSave
%Mem=1900MB
#P OB98/GEN NMR

erre ene a

0 1
  C      345.737    -176.643     199.108
  O      345.971    -177.093     197.784
  H      344.945    -177.253     199.552
  H      345.414    -175.597     199.112
  H      346.645    -176.752     199.709
  P      346.983    -176.256     196.868
  C      346.106    -174.700     194.990
  O      346.163    -174.961     196.390
  C      345.071    -175.608     194.331
  O      343.898    -175.717     195.160
  C      344.581    -175.081     192.987
  O      345.549    -175.296     191.974
  C      343.290    -175.855     192.826
  O      343.531    -177.189     192.365
  C      342.755    -175.859     194.281
  N      341.763    -174.814     194.527
  C      340.601    -174.872     193.751
  O      340.449    -175.770     192.922
  N      339.654    -173.894     193.923
  C      339.835    -172.955     194.798
  N      338.858    -172.020     194.913
  C      341.046    -172.866     195.646
  C      341.960    -173.818     195.457
  O      347.664    -177.002     195.757
  O      348.035    -175.655     197.916
  H      342.657    -177.635     192.382
  H      348.781    -176.270     198.046
  H      341.148    -172.070     196.367
  H      342.873    -173.825     196.042
  H      342.296    -176.830     194.518
  H      342.616    -175.375     192.116
  H      344.336    -174.014     193.065
  H      345.504    -176.612     194.227
  H      338.052    -172.111     194.303
  H      347.102    -174.903     194.583
  H      338.850    -171.293     195.620
  H      345.862    -173.646     194.805
  P      345.494    -174.475     190.599
  C      344.532    -175.931     188.702
  O      344.235    -175.071     189.798
  O      346.772    -174.419     189.836
  O      344.964    -173.033     191.064
  H      345.673    -172.516     191.528
  H      343.620    -176.262     188.251
  H      345.084    -176.778     189.053
  H      345.115    -175.399     187.979

 6  7  8  9  10  11  12  13  14  15  16  26  30  31  32  33  35 0
 6-311+G(2d,p)
 ****
 37  38 0
 6-311+G(2d,p)
 ****
 1  2  3  4  5  17  18  19  20  21  22  23  24  25 0
 3-21G
 ****
 27  28  29  34  36  39  40  41  42  43  44  45  46 0
 3-21G
 ****


