%nproc=1
%NoSave
%Mem=1900MB
#P OB98/GEN NMR

erre ene a

0 1
  C     -161.452    -140.710      42.259
  O     -160.424    -141.103      41.373
  H     -161.828    -141.599      42.772
  H     -162.278    -140.247      41.713
  H     -161.062    -140.016      43.008
  P     -159.782    -139.990      40.410
  C     -161.071    -141.020      38.410
  O     -160.834    -139.864      39.199
  C     -160.681    -140.758      36.958
  O     -161.734    -140.065      36.254
  C     -159.446    -139.878      36.773
  O     -158.230    -140.543      37.065
  C     -159.586    -139.535      35.298
  O     -159.187    -140.665      34.503
  C     -161.112    -139.294      35.187
  N     -161.475    -137.882      35.301
  C     -161.413    -137.123      34.125
  O     -161.066    -137.641      33.064
  N     -161.709    -135.781      34.185
  C     -162.020    -135.241      35.324
  N     -162.258    -133.900      35.337
  C     -162.115    -136.006      36.582
  C     -161.829    -137.304      36.502
  O     -158.360    -140.209      40.001
  O     -160.016    -138.610      41.185
  H     -159.037    -140.338      33.598
  H     -159.625    -137.889      40.634
  H     -162.371    -135.505      37.504
  H     -161.859    -137.930      37.387
  H     -161.501    -139.684      34.241
  H     -158.968    -138.686      34.992
  H     -159.537    -138.954      37.357
  H     -160.556    -141.733      36.467
  H     -162.142    -133.401      34.465
  H     -162.131    -141.276      38.492
  H     -162.230    -133.367      36.202
  H     -160.474    -141.858      38.781
  P     -157.010    -139.664      37.632
  C     -155.793    -139.838      35.336
  O     -156.294    -138.997      36.361
  O     -155.966    -140.776      38.117
  O     -157.360    -138.695      38.716
  H     -156.076    -140.974      39.066
  H     -155.350    -139.239      34.568
  H     -156.595    -140.412      34.922
  H     -155.056    -140.498      35.744

 6  7  8  9  10  11  12  13  14  15  16  26  30  31  32  33  35 0
 6-311+G(2d,p)
 ****
 37  38 0
 6-311+G(2d,p)
 ****
 1  2  3  4  5  17  18  19  20  21  22  23  24  25 0
 3-21G
 ****
 27  28  29  34  36  39  40  41  42  43  44  45  46 0
 3-21G
 ****


