%nproc=1
%NoSave
%Mem=1900MB
#P OB98/GEN NMR

erre ene a

0 1
  C      367.727     278.286    -194.532
  O      367.483     277.788    -195.831
  H      368.429     277.614    -194.025
  H      366.799     278.318    -193.955
  H      368.169     279.284    -194.589
  P      366.394     278.568    -196.713
  C      363.926     277.750    -196.883
  O      364.959     278.272    -196.050
  C      363.805     276.245    -196.649
  O      363.678     275.976    -195.233
  C      362.577     275.616    -197.295
  O      362.741     275.393    -198.683
  C      362.469     274.324    -196.507
  O      363.312     273.297    -197.046
  C      362.938     274.742    -195.098
  N      361.815     274.873    -194.170
  C      361.300     273.676    -193.674
  O      361.742     272.574    -193.970
  N      360.219     273.798    -192.834
  C      359.594     274.964    -192.498
  O      358.585     274.993    -191.789
  C      360.168     276.190    -193.068
  C      361.236     276.091    -193.870
  O      366.363     277.732    -198.079
  O      366.688     280.017    -196.950
  H      366.813     278.237    -198.785
  H      362.941     273.070    -197.921
  H      359.829     272.944    -192.466
  H      359.697     277.135    -192.822
  H      361.672     276.985    -194.311
  H      363.632     273.997    -194.686
  H      361.447     273.941    -196.520
  H      361.685     276.229    -197.090
  H      364.719     275.761    -197.012
  H      364.175     277.930    -197.931
  H      362.986     278.259    -196.645
  P      361.419     275.102    -199.555
  C      361.172     272.634    -200.445
  O      361.103     273.536    -199.355
  O      362.014     275.208    -201.031
  O      360.298     276.038    -199.247
  H      362.965     274.987    -201.055
  H      360.929     271.648    -200.108
  H      362.163     272.639    -200.850
  H      360.477     272.934    -201.201

 6  7  8  9  10  11  12  13  14  15  16  27  31  32  33  34  35 0
 6-311+G(2d,p)
 ****
 36  37 0
 6-311+G(2d,p)
 ****
 1  2  3  4  5  17  18  19  20  21  22  23  24  25 0
 3-21G
 ****
 26  28  29  30  38  39  40  41  42  43  44  45 0
 3-21G
 ****


