%nproc=1
%NoSave
%Mem=1900MB
#P OB98/GEN NMR

erre ene a

0 1
  C      512.949     359.866      -0.472
  O      513.196     361.242      -0.173
  P      514.582     361.604       0.553
  C      515.826     362.797      -1.403
  O      515.189     362.918      -0.131
  C      515.463     363.992      -2.289
  O      514.040     364.104      -2.458
  C      515.902     365.326      -1.702
  O      517.289     365.524      -1.900
  C      515.024     366.307      -2.467
  O      515.652     366.757      -3.680
  C      513.757     365.479      -2.782
  N      512.581     365.956      -2.072
  C      511.920     367.048      -2.647
  O      512.359     367.569      -3.675
  N      510.806     367.547      -2.019
  C      510.400     367.013      -0.900
  N      509.291     367.550      -0.326
  C      511.082     365.872      -0.256
  C      512.156     365.405      -0.885
  O      515.565     360.443       0.064
  O      514.486     361.657       2.046
  H      516.434     367.272      -3.397
  H      516.210     360.231       0.759
  H      510.709     365.468       0.675
  H      512.715     364.566      -0.484
  H      513.540     365.504      -3.858
  H      514.814     367.202      -1.870
  H      515.656     365.364      -0.634
  H      515.927     363.845      -3.278
  H      508.848     368.333      -0.804
  H      515.519     361.866      -1.883
  H      508.896     367.219       0.533
  H      516.908     362.731      -1.250
  P      518.088     366.344      -0.785
  C      520.163     365.820      -2.200
  O      519.442     366.824      -1.510
  O      518.621     365.183       0.174
  O      517.335     367.396      -0.031
  H      519.057     365.558       0.959
  H      520.932     366.303      -2.816
  H      519.504     365.249      -2.862
  H      520.655     365.152      -1.488
  H      511.997     359.770      -0.951
  H      512.951     359.298       0.435
  H      513.714     359.500      -1.124

 3  4  5  6  7  8  9  10  11  12  13  21  23  27  28  29  30  32 0
 6-311+G(2d,p)
 ****
 34  35 0
 6-311+G(2d,p)
 ****
 1  2  14  15  16  17  18  19  20  22  24  25  26 0
 3-21G
 ****
 31  33  36  37  38  39  40  41  42  43  44  45  46 0
 3-21G
 ****


