%nproc=1
%NoSave
%Mem=1900MB
#P OB98/GEN NMR

erre ene a

0 1
  C     -703.793     428.997     672.448
  O     -704.090     428.728     671.066
  P     -704.153     427.239     670.475
  C     -706.640     427.091     669.757
  O     -705.274     427.177     669.332
  C     -707.601     427.590     668.673
  O     -707.645     429.038     668.647
  C     -707.239     427.164     667.255
  O     -707.585     425.789     667.036
  C     -708.063     428.156     666.439
  O     -709.441     427.724     666.316
  C     -707.978     429.432     667.304
  N     -706.991     430.393     666.790
  C     -707.437     431.233     665.760
  O     -708.588     431.129     665.315
  N     -706.563     432.179     665.274
  C     -705.335     432.225     665.692
  N     -704.513     433.175     665.179
  C     -704.810     431.279     666.699
  C     -705.688     430.398     667.201
  O     -704.284     426.171     671.505
  O     -702.783     427.064     669.649
  H     -709.953     428.535     666.075
  H     -702.505     426.131     669.677
  H     -703.767     431.319     667.019
  H     -705.368     429.663     667.940
  H     -708.948     429.931     667.364
  H     -707.678     428.291     665.418
  H     -706.193     427.331     667.065
  H     -708.615     427.236     668.944
  H     -704.915     433.808     664.497
  H     -706.749     427.719     670.663
  H     -703.558     433.289     665.445
  H     -706.866     426.049     670.016
  P     -706.935     425.013     665.798
  C     -705.515     423.418     667.212
  O     -706.585     423.523     666.285
  O     -705.851     425.721     665.051
  O     -708.208     424.772     664.811
  H     -707.894     424.770     663.890
  H     -705.627     422.468     667.751
  H     -705.501     424.250     667.924
  H     -704.565     423.392     666.658
  H     -703.805     430.054     672.616
  H     -702.825     428.608     672.687
  H     -704.528     428.529     673.069

 3  4  5  6  7  8  9  10  11  12  13  23  27  28  29  30  32 0
 6-311+G(2d,p)
 ****
 34  35 0
 6-311+G(2d,p)
 ****
 1  2  14  15  16  17  18  19  20  21  22  24  25  26 0
 3-21G
 ****
 31  33  36  37  38  39  40  41  42  43  44  45  46 0
 3-21G
 ****


