%nproc=1
%NoSave
%Mem=1900MB
#P OB98/GEN NMR

erre ene a

0 1
  C      861.398     391.357     665.444
  O      862.128     392.549     665.217
  H      860.882     391.443     666.402
  H      862.069     390.497     665.478
  H      860.647     391.218     664.653
  P      863.067     392.635     663.919
  C      864.669     390.875     664.942
  O      864.528     392.179     664.386
  C      866.118     390.387     664.833
  O      866.419     390.141     663.424
  C      867.160     391.400     665.345
  O      868.280     390.647     665.839
  C      867.526     392.126     664.070
  O      868.701     392.886     664.228
  C      867.558     390.959     663.080
  N      867.513     391.400     661.693
  C      868.729     391.827     661.145
  O      869.750     391.830     661.825
  N      868.740     392.264     659.841
  C      867.627     392.329     659.178
  N      867.711     392.795     657.896
  C      866.321     391.945     659.737
  C      866.334     391.486     660.991
  O      863.022     393.921     663.169
  O      862.581     391.406     663.013
  H      868.591     393.543     664.960
  H      862.043     391.743     662.266
  H      865.416     392.040     659.147
  H      865.423     391.180     661.492
  H      868.467     390.349     663.224
  H      866.738     392.836     663.789
  H      866.768     392.053     666.130
  H      866.208     389.426     665.357
  H      868.629     393.058     657.552
  H      864.005     390.207     664.392
  H      866.909     392.907     657.293
  H      864.361     390.887     666.002
  P      868.400     390.164     667.371
  C      870.233     391.809     668.123
  O      869.887     390.452     667.892
  O      867.925     388.760     667.596
  O      867.502     391.200     668.202
  H      867.119     390.736     668.974
  H      871.245     391.866     668.466
  H      869.582     392.222     668.865
  H      870.133     392.362     667.213

 6  7  8  9  10  11  12  13  14  15  16  26  30  31  32  33  35 0
 6-311+G(2d,p)
 ****
 37  38 0
 6-311+G(2d,p)
 ****
 1  2  3  4  5  17  18  19  20  21  22  23  24  25 0
 3-21G
 ****
 27  28  29  34  36  39  40  41  42  43  44  45  46 0
 3-21G
 ****


