%nproc=1
%NoSave
%Mem=1900MB
#P OB98/GEN NMR

erre ene a

0 1
  C      477.298    -237.577     138.866
  O      476.948    -236.511     139.742
  P      475.736    -235.561     139.303
  C      474.996    -234.498     141.586
  O      475.663    -234.345     140.347
  C      475.795    -235.411     142.535
  O      477.109    -234.824     142.737
  C      475.206    -235.574     143.932
  O      475.782    -236.734     144.539
  C      475.720    -234.336     144.629
  O      475.652    -234.461     146.048
  C      477.142    -234.188     144.040
  N      477.583    -232.781     143.907
  C      478.085    -232.133     145.032
  O      478.181    -232.658     146.140
  N      478.447    -230.825     144.862
  C      478.397    -230.123     143.695
  O      478.650    -228.928     143.616
  C      477.993    -230.893     142.510
  C      477.604    -232.158     142.667
  O      474.435    -236.432     139.628
  O      475.789    -235.141     137.873
  H      476.029    -233.632     146.425
  H      474.048    -236.781     138.803
  H      478.750    -230.322     145.685
  H      478.006    -230.391     141.550
  H      477.286    -232.738     141.801
  H      477.885    -234.701     144.661
  H      475.110    -233.472     144.353
  H      474.116    -235.637     143.960
  H      475.937    -236.386     142.060
  H      473.997    -234.904     141.423
  H      474.863    -233.517     142.054
  P      474.794    -237.774     145.260
  C      475.912    -240.046     144.823
  O      475.704    -238.997     145.747
  O      473.566    -238.144     144.497
  O      474.436    -237.030     146.634
  H      473.624    -237.417     147.015
  H      476.883    -240.507     145.021
  H      475.895    -239.681     143.791
  H      475.126    -240.798     144.949
  H      478.117    -238.126     139.281
  H      477.582    -237.178     137.914
  H      476.458    -238.228     138.744

 3  4  5  6  7  8  9  10  11  12  13  23  28  29  30  31  32 0
 6-311+G(2d,p)
 ****
 33  34 0
 6-311+G(2d,p)
 ****
 1  2  14  15  16  17  18  19  20  21  22  24  25  26  27 0
 3-21G
 ****
 35  36  37  38  39  40  41  42  43  44  45 0
 3-21G
 ****


