%nproc=1
%NoSave
%Mem=1900MB
#P OB98/GEN NMR

erre ene a

0 1
  C      -84.661      84.262     -34.676
  O      -85.528      83.584     -33.790
  H      -83.931      83.547     -35.065
  H      -84.127      85.061     -34.157
  H      -85.225      84.675     -35.517
  P      -86.624      84.438     -32.994
  C      -86.808      83.081     -30.800
  O      -87.406      83.410     -32.045
  C      -87.847      82.502     -29.831
  O      -88.918      83.473     -29.655
  C      -88.492      81.196     -30.322
  O      -88.841      80.430     -29.163
  C      -89.735      81.719     -31.014
  O      -90.659      80.689     -31.264
  C      -90.149      82.825     -30.040
  N      -91.099      83.758     -30.624
  C      -92.362      83.807     -30.030
  O      -92.628      83.077     -29.075
  N      -93.303      84.658     -30.551
  C      -93.029      85.348     -31.613
  N      -94.011      86.160     -32.087
  C      -91.726      85.281     -32.306
  C      -90.815      84.478     -31.761
  O      -87.501      85.309     -33.829
  O      -85.762      85.303     -31.958
  H      -91.065      80.371     -30.426
  H      -85.713      86.227     -32.262
  H      -91.555      85.862     -33.200
  H      -89.829      84.361     -32.198
  H      -90.594      82.398     -29.131
  H      -89.480      82.151     -31.987
  H      -87.836      80.615     -30.976
  H      -87.376      82.367     -28.851
  H      -94.891      86.167     -31.587
  H      -86.384      84.001     -30.386
  H      -93.920      86.727     -32.917
  H      -86.001      82.357     -30.949
  P      -87.812      79.445     -28.426
  C      -89.504      77.845     -27.316
  O      -88.505      78.840     -27.114
  O      -86.466      80.047     -28.181
  O      -87.686      78.177     -29.397
  H      -86.791      77.797     -29.310
  H      -89.885      77.525     -26.369
  H      -89.076      77.009     -27.829
  H      -90.301      78.253     -27.902

 6  7  8  9  10  11  12  13  14  15  16  26  30  31  32  33  35 0
 6-311+G(2d,p)
 ****
 37  38 0
 6-311+G(2d,p)
 ****
 1  2  3  4  5  17  18  19  20  21  22  23  24  25 0
 3-21G
 ****
 27  28  29  34  36  39  40  41  42  43  44  45  46 0
 3-21G
 ****


