%nproc=1
%NoSave
%Mem=1900MB
#P OB98/GEN NMR

erre ene a

0 1
  C      182.534     163.215    -180.979
  O      182.482     161.871    -181.418
  H      181.883     163.821    -181.617
  H      183.553     163.605    -181.053
  H      182.182     163.294    -179.947
  P      183.363     160.784    -180.637
  C      181.353     159.631    -179.494
  O      182.534     160.410    -179.321
  C      181.477     158.317    -178.731
  O      182.630     157.577    -179.183
  C      181.641     158.486    -177.220
  O      180.382     158.715    -176.607
  C      182.253     157.144    -176.855
  O      181.228     156.130    -176.848
  C      183.219     156.916    -178.032
  N      188.169     156.092    -178.764
  C      187.079     155.289    -179.056
  N      187.359     154.074    -179.576
  N      185.836     155.634    -178.837
  C      185.721     156.847    -178.247
  C      186.722     157.722    -177.898
  C      188.085     157.358    -178.198
  O      189.074     158.046    -177.969
  N      186.213     158.831    -177.256
  C      184.912     158.634    -177.256
  N      184.557     157.444    -177.834
  O      184.790     161.155    -180.369
  O      183.242     159.466    -181.537
  H      180.626     156.342    -176.110
  H      183.971     159.410    -182.178
  H      189.100     155.761    -178.943
  H      184.177     159.334    -176.856
  H      183.323     155.854    -178.284
  H      182.725     157.140    -175.873
  H      188.280     153.659    -179.499
  H      182.366     159.275    -176.975
  H      186.583     153.451    -179.752
  H      180.594     157.708    -178.963
  H      181.236     159.445    -180.563
  H      180.478     160.185    -179.133
  P      180.269     159.514    -175.213
  C      179.803     161.535    -176.760
  O      180.485     161.053    -175.611
  O      181.163     159.016    -174.135
  O      178.716     159.466    -174.856
  H      178.459     158.667    -174.325
  H      180.037     162.569    -176.906
  H      178.748     161.424    -176.621
  H      180.111     160.975    -177.618

 6  7  8  9  10  11  12  13  14  15  26  29  33  34 0
 6-311+G(2d,p)
 ****
 36  38  39  40  41 0
 6-311+G(2d,p)
 ****
 1  2  3  4  5  16  17  18  19  20  21  22  23  24  25 0
 3-21G
 ****
 27  28  30  31  32  35  37  42  43  44  45  46  47 0
 3-21G
 ****
 48  49 0
 3-21G
 ****


