%nproc=1
%NoSave
%Mem=1900MB
#P OB98/GEN NMR

erre ene a

0 1
  C     -911.914     671.017    -898.940
  O     -913.114     670.291    -898.610
  P     -913.366     669.986    -897.060
  C     -911.755     668.891    -895.330
  O     -912.300     668.864    -896.620
  C     -911.464     667.445    -894.840
  O     -910.417     666.841    -895.670
  C     -910.918     667.375    -893.420
  O     -911.924     667.544    -892.450
  C     -910.293     665.965    -893.460
  O     -911.326     664.979    -893.300
  C     -909.695     665.899    -894.870
  N     -904.952     664.027    -894.340
  C     -906.161     663.437    -894.180
  N     -907.370     664.042    -894.350
  C     -907.272     665.323    -894.650
  C     -906.102     666.059    -894.820
  C     -904.906     665.372    -894.660
  N     -903.623     665.950    -894.810
  N     -906.376     667.396    -895.130
  C     -907.652     667.442    -895.200
  N     -908.241     666.240    -894.930
  O     -914.768     669.177    -897.090
  O     -913.401     671.212    -896.180
  H     -910.865     664.125    -893.260
  H     -915.269     669.400    -896.280
  H     -906.178     662.393    -893.950
  H     -908.252     668.370    -895.360
  H     -909.822     664.908    -895.340
  H     -909.541     665.819    -892.650
  H     -910.113     668.134    -893.240
  H     -912.374     666.858    -894.940
  H     -912.469     669.349    -894.630
  H     -902.838     665.388    -894.520
  H     -903.602     666.959    -894.880
  H     -910.843     669.523    -895.290
  P     -911.487     668.056    -891.010
  C     -909.425     667.606    -889.540
  O     -910.147     667.209    -890.690
  O     -912.601     667.349    -890.070
  O     -911.390     669.537    -890.860
  H     -912.667     666.385    -890.270
  H     -908.564     666.945    -889.430
  H     -910.086     667.531    -888.650
  H     -909.024     668.664    -889.610
  H     -911.861     671.156    -900.000
  H     -911.060     670.463    -898.611
  H     -911.929     671.971    -898.456

 3  4  5  6  7  8  9  10  11  12  22  25  29  30  31  32 0
 6-311+G(2d,p)
 ****
 33  36  37 0
 6-311+G(2d,p)
 ****
 1  2  13  14  15  16  17  18  19  20  21  23  24  26 0
 3-21G
 ****
 27  28  34  35  38  39  40  41  42  43  44  45  46  47  48 0
 3-21G
 ****


