%nproc=1
%NoSave
%Mem=1900MB
#P OB98/GEN NMR

erre ene a

0 1
  C      356.139    -286.230    -460.187
  O      356.554    -286.775    -458.950
  H      355.653    -285.268    -460.004
  H      355.420    -286.905    -460.671
  H      356.997    -286.072    -460.845
  P      357.398    -288.138    -459.002
  C      355.299    -289.685    -458.880
  O      356.422    -289.250    -459.635
  C      354.690    -290.927    -459.520
  O      353.506    -291.308    -458.768
  C      354.251    -290.709    -460.980
  O      354.496    -291.897    -461.732
  C      352.754    -290.472    -460.860
  O      352.031    -290.757    -462.050
  C      352.404    -291.408    -459.695
  N      351.145    -291.050    -459.046
  C      349.980    -291.182    -459.789
  O      349.919    -291.651    -460.926
  N      348.831    -290.747    -459.173
  C      348.750    -290.190    -457.929
  O      347.691    -289.796    -457.438
  C      350.017    -290.062    -457.201
  C      351.144    -290.489    -457.777
  O      357.492    -288.575    -457.461
  O      358.734    -288.050    -459.653
  H      358.293    -288.195    -457.046
  H      352.197    -291.691    -462.289
  H      347.973    -290.839    -459.696
  H      349.984    -289.616    -456.213
  H      352.092    -290.404    -457.267
  H      352.362    -292.446    -460.041
  H      352.556    -289.432    -460.591
  H      354.756    -289.860    -461.452
  H      355.406    -291.761    -459.448
  H      354.554    -288.879    -458.857
  H      355.621    -289.905    -457.853
  P      355.934    -292.046    -462.434
  C      355.370    -290.938    -464.741
  O      356.035    -290.831    -463.485
  O      355.708    -293.343    -463.341
  O      357.058    -292.142    -461.450
  H      354.819    -293.401    -463.723
  H      355.540    -290.049    -465.312
  H      354.320    -291.062    -464.579
  H      355.751    -291.783    -465.275

 6  7  8  9  10  11  12  13  14  15  16  27  31  32  33  34  35 0
 6-311+G(2d,p)
 ****
 36  37 0
 6-311+G(2d,p)
 ****
 1  2  3  4  5  17  18  19  20  21  22  23  24  25 0
 3-21G
 ****
 26  28  29  30  38  39  40  41  42  43  44  45 0
 3-21G
 ****


