%nproc=1
%NoSave
%Mem=1900MB
#P OB98/GEN NMR

erre ene a

0 1
  C       86.992     388.277    -437.780
  O       87.694     387.051    -437.898
  H       86.005     388.096    -437.343
  H       87.557     388.942    -437.120
  H       86.888     388.755    -438.758
  P       87.128     385.992    -438.961
  C       85.114     385.320    -437.451
  O       86.311     384.904    -438.102
  C       84.610     384.221    -436.516
  O       84.290     383.041    -437.308
  C       85.630     383.802    -435.453
  O       84.936     383.545    -434.225
  C       86.208     382.511    -435.998
  O       86.725     381.674    -434.975
  C       84.997     381.925    -436.729
  N       87.314     377.460    -437.621
  C       86.974     378.090    -436.474
  N       86.349     379.274    -436.324
  C       86.033     379.802    -437.529
  C       86.320     379.280    -438.776
  C       87.002     378.052    -438.806
  N       87.389     377.423    -439.964
  N       85.862     380.130    -439.768
  C       85.320     381.144    -439.126
  N       85.397     380.988    -437.769
  O       88.455     385.207    -439.400
  O       86.405     386.569    -440.130
  H       87.046     380.840    -435.385
  H       88.945     385.738    -440.058
  H       87.245     377.571    -435.554
  H       84.859     382.009    -439.592
  H       84.318     381.392    -436.058
  H       87.018     382.735    -436.696
  H       86.399     384.559    -435.285
  H       83.668     384.561    -436.060
  H       84.360     385.537    -438.211
  H       87.931     376.575    -439.891
  H       87.218     377.878    -440.845
  H       85.317     386.232    -436.878
  P       85.328     384.475    -432.966
  C       86.527     382.907    -431.283
  O       85.318     383.566    -431.643
  O       84.047     385.417    -432.789
  O       86.568     385.277    -433.185
  H       84.320     386.350    -432.725
  H       86.372     382.342    -430.388
  H       87.294     383.634    -431.118
  H       86.824     382.249    -432.073

 6  7  8  9  10  11  12  13  14  15  25  28  32  33  34  35 0
 6-311+G(2d,p)
 ****
 36  39  40 0
 6-311+G(2d,p)
 ****
 1  2  3  4  5  16  17  18  19  20  21  22  23  24 0
 3-21G
 ****
 26  27  29  30  31  37  38  41  42  43  44  45  46  47 0
 3-21G
 ****
 48 0
 3-21G
 ****


