%nproc=1
%NoSave
%Mem=1900MB
#P OB98/GEN NMR

erre ene a

0 1
  C      189.132     -47.877     704.440
  O      190.304     -48.066     703.635
  P      190.253     -48.007     702.025
  C      190.400     -45.471     701.549
  O      189.554     -46.624     701.590
  C      190.251     -44.702     700.242
  O      188.913     -44.161     700.113
  C      191.186     -43.507     700.094
  O      192.487     -43.939     699.722
  C      190.460     -42.675     699.041
  O      190.729     -43.185     697.728
  C      188.991     -42.905     699.422
  N      186.810     -38.273     699.341
  C      187.212     -39.103     698.346
  N      187.792     -40.323     698.446
  C      187.920     -40.675     699.744
  C      187.552     -39.939     700.860
  C      186.974     -38.677     700.625
  N      186.579     -37.836     701.633
  N      187.861     -40.617     702.024
  C      188.386     -41.756     701.599
  N      188.438     -41.840     700.242
  O      189.665     -49.221     701.385
  O      191.782     -47.808     701.585
  H      191.687     -43.102     697.568
  H      191.916     -48.191     700.690
  H      187.048     -38.737     697.339
  H      188.736     -42.549     702.254
  H      188.355     -42.994     698.530
  H      190.763     -41.618     699.050
  H      191.230     -42.947     701.040
  H      190.396     -45.403     699.412
  H      191.443     -45.806     701.664
  H      186.200     -36.926     701.389
  H      186.745     -38.103     702.596
  H      190.139     -44.823     702.401
  P      193.401     -44.732     700.771
  C      193.809     -46.956     699.553
  O      193.099     -46.294     700.587
  O      193.355     -44.230     702.177
  O      194.883     -44.598     700.162
  H      195.528     -44.607     700.889
  H      193.333     -46.745     698.592
  H      193.782     -48.028     699.746
  H      194.851     -46.632     699.524
  H      189.393     -47.957     705.475
  H      188.407     -48.626     704.196
  H      188.721     -46.908     704.249

 3  4  5  6  7  8  9  10  11  12  22  25  29  30  31  32 0
 6-311+G(2d,p)
 ****
 33  36  37 0
 6-311+G(2d,p)
 ****
 1  2  13  14  15  16  17  18  19  20  21  23  24  26 0
 3-21G
 ****
 27  28  34  35  38  39  40  41  42  43  44  45  46  47  48 0
 3-21G
 ****


