%nproc=1
%NoSave
%Mem=1900MB
#P OB98/GEN NMR

erre ene a

0 1
  C     -290.678    -449.630      89.775
  O     -291.413    -448.842      90.690
  H     -291.084    -449.468      88.772
  H     -290.785    -450.688      90.025
  H     -289.621    -449.348      89.778
  P     -290.939    -448.782      92.220
  C     -292.388    -450.796      92.941
  O     -291.075    -450.268      92.821
  C     -292.531    -451.614      94.230
  O     -291.622    -452.746      94.159
  C     -292.201    -450.821      95.499
  O     -293.086    -451.229      96.543
  C     -290.781    -451.255      95.827
  O     -290.483    -451.127      97.217
  C     -290.770    -452.698      95.327
  N     -286.434    -454.475      97.231
  C     -287.645    -454.214      97.850
  N     -287.702    -454.446      99.186
  N     -288.700    -453.764      97.224
  C     -288.507    -453.600      95.893
  C     -287.360    -453.825      95.160
  C     -286.189    -454.299      95.877
  O     -285.088    -454.532      95.378
  N     -287.546    -453.523      93.833
  C     -288.804    -453.120      93.765
  N     -289.425    -453.139      94.990
  O     -291.596    -447.719      93.045
  O     -289.359    -448.564      92.136
  H     -289.578    -451.475      97.349
  H     -289.117    -447.649      92.361
  H     -285.652    -454.810      97.765
  H     -289.311    -452.804      92.863
  H     -291.159    -453.402      96.072
  H     -290.072    -450.638      95.264
  H     -286.933    -454.814      99.722
  H     -292.284    -449.745      95.349
  H     -288.588    -454.291      99.654
  H     -293.548    -452.022      94.270
  H     -292.581    -451.439      92.070
  H     -293.112    -449.971      92.935
  P     -294.469    -450.443      96.747
  C     -293.628    -448.897      98.623
  O     -294.156    -448.969      97.305
  O     -295.528    -451.185      97.491
  O     -294.936    -450.151      95.235
  H     -295.912    -450.193      95.187
  H     -293.461    -447.873      98.885
  H     -292.702    -449.432      98.666
  H     -294.324    -449.332      99.310

 6  7  8  9  10  11  12  13  14  15  26  29  33  34 0
 6-311+G(2d,p)
 ****
 36  38  39  40  41 0
 6-311+G(2d,p)
 ****
 1  2  3  4  5  16  17  18  19  20  21  22  23  24  25 0
 3-21G
 ****
 27  28  30  31  32  35  37  42  43  44  45  46  47 0
 3-21G
 ****
 48  49 0
 3-21G
 ****


