%nproc=1
%NoSave
%Mem=1900MB
#P OB98/GEN NMR

erre ene a

0 1
  C      516.509     -80.510     115.163
  O      517.370     -79.423     114.888
  H      515.473     -80.169     115.081
  H      516.680     -80.872     116.181
  H      516.673     -81.320     114.448
  P      518.943     -79.732     114.841
  C      519.348     -78.040     112.902
  O      519.645     -78.418     114.239
  C      519.774     -76.590     112.671
  O      518.801     -75.716     113.304
  C      521.147     -76.255     113.260
  O      521.822     -75.341     112.390
  C      520.807     -75.568     114.570
  O      521.834     -74.709     115.051
  C      519.524     -74.822     114.181
  N      518.710     -74.462     115.338
  C      518.724     -73.131     115.744
  O      519.311     -72.226     115.155
  N      518.021     -72.854     116.888
  C      517.347     -73.757     117.661
  O      516.756     -73.451     118.690
  C      517.377     -75.151     117.185
  C      518.049     -75.433     116.067
  O      519.076     -80.793     113.651
  O      519.542     -80.222     116.117
  H      518.995     -81.707     113.996
  H      521.591     -74.426     115.957
  H      518.017     -71.891     117.194
  H      516.861     -75.893     117.780
  H      518.102     -76.452     115.702
  H      519.765     -73.923     113.605
  H      520.596     -76.315     115.343
  H      521.768     -77.139     113.416
  H      519.743     -76.382     111.594
  H      518.271     -78.133     112.735
  H      519.874     -78.706     112.213
  P      523.136     -75.869     111.634
  C      522.667     -74.568     109.413
  O      523.503     -74.743     110.547
  O      522.541     -77.078     110.774
  O      524.238     -76.237     112.571
  H      521.647     -76.902     110.427
  H      523.057     -73.783     108.800
  H      521.679     -74.312     109.734
  H      522.635     -75.477     108.850

 6  7  8  9  10  11  12  13  14  15  16  27  31  32  33  34  35 0
 6-311+G(2d,p)
 ****
 36  37 0
 6-311+G(2d,p)
 ****
 1  2  3  4  5  17  18  19  20  21  22  23  24  25 0
 3-21G
 ****
 26  28  29  30  38  39  40  41  42  43  44  45 0
 3-21G
 ****


