%nproc=1
%NoSave
%Mem=1900MB
#P OB98/GEN NMR

erre ene a

0 1
  C       80.208      79.592     396.002
  O       80.912      78.595     395.256
  P       80.042      77.451     394.546
  C       81.282      75.655     395.965
  O       80.823      76.059     394.681
  C       81.044      74.156     396.163
  O       79.652      73.826     396.008
  C       81.773      73.296     395.145
  O       83.143      73.179     395.482
  C       81.005      71.982     395.232
  O       81.565      71.102     396.220
  C       79.585      72.436     395.642
  N       78.601      72.210     394.599
  C       77.939      70.978     394.639
  O       78.221      70.150     395.507
  N       76.997      70.708     393.678
  C       76.757      71.580     392.749
  N       75.818      71.253     391.821
  C       77.452      72.879     392.657
  C       78.354      73.126     393.605
  O       80.176      77.801     392.990
  O       78.613      77.419     394.983
  H       81.276      71.459     397.086
  H       79.360      77.557     392.518
  H       77.223      73.570     391.858
  H       78.913      74.056     393.615
  H       79.258      71.894     396.539
  H       81.028      71.444     394.280
  H       81.661      73.725     394.143
  H       81.362      73.886     397.180
  H       75.363      70.353     391.914
  H       80.767      76.220     396.744
  H       75.557      71.852     391.052
  H       82.347      75.898     396.052
  P       84.188      74.087     394.678
  C       84.562      72.143     393.046
  O       85.167      73.048     393.947
  O       85.122      74.644     395.857
  O       83.634      75.188     393.837
  H       85.753      75.297     395.505
  H       85.346      71.645     392.470
  H       83.900      72.671     392.354
  H       83.998      71.387     393.600
  H       80.908      80.286     396.418
  H       79.657      79.124     396.791
  H       79.532      80.111     395.355

 3  4  5  6  7  8  9  10  11  12  13  21  23  27  28  29  30  32 0
 6-311+G(2d,p)
 ****
 34  35 0
 6-311+G(2d,p)
 ****
 1  2  14  15  16  17  18  19  20  22  24  25  26 0
 3-21G
 ****
 31  33  36  37  38  39  40  41  42  43  44  45  46 0
 3-21G
 ****


