%nproc=1
%NoSave
%Mem=1900MB
#P OB98/GEN NMR

erre ene a

0 1
  C      122.759      39.591      31.081
  O      123.893      40.042      31.808
  P      125.038      38.978      32.168
  C      124.127      38.214      34.473
  O      125.138      38.924      33.771
  C      123.778      38.908      35.788
  O      124.976      39.001      36.606
  C      123.225      40.328      35.632
  O      122.284      40.537      36.692
  C      124.443      41.199      35.871
  O      124.091      42.529      36.241
  C      125.147      40.392      36.958
  N      128.545      43.985      38.251
  C      127.196      43.965      38.301
  N      126.360      42.970      37.939
  C      127.052      41.911      37.485
  C      128.425      41.800      37.345
  C      129.191      42.902      37.758
  N      130.566      42.921      37.719
  N      128.759      40.570      36.817
  C      127.610      39.950      36.641
  N      126.554      40.713      37.053
  O      126.375      39.742      31.736
  O      124.918      37.660      31.485
  H      123.479      42.882      35.567
  H      126.772      39.303      30.958
  H      126.726      44.865      38.687
  H      127.491      38.962      36.222
  H      124.696      40.548      37.947
  H      125.047      41.249      34.958
  H      122.753      40.519      34.663
  H      123.065      38.276      36.333
  H      124.495      37.208      34.695
  H      131.046      43.690      38.158
  H      131.061      42.055      37.534
  H      123.237      38.127      33.843
  P      121.547      41.960      36.740
  C      122.913      42.282      38.921
  O      121.694      42.504      38.238
  O      119.996      41.577      36.624
  O      121.964      42.901      35.659
  H      119.502      42.311      36.217
  H      123.102      43.125      39.589
  H      123.756      42.181      38.230
  H      122.829      41.369      39.516
  H      122.090      40.410      30.919
  H      122.259      38.827      31.638
  H      123.074      39.196      30.138

 3  4  5  6  7  8  9  10  11  12  22  25  29  30  31  32 0
 6-311+G(2d,p)
 ****
 33  36  37 0
 6-311+G(2d,p)
 ****
 1  2  13  14  15  16  17  18  19  20  21  23  24  26 0
 3-21G
 ****
 27  28  34  35  38  39  40  41  42  43  44  45  46  47  48 0
 3-21G
 ****


