%nproc=1
%NoSave
%Mem=1900MB
#P OB98/GEN NMR

erre ene a

0 1
  C      161.476      -8.403     144.257
  O      160.488      -8.780     143.293
  P      160.872      -8.627     141.744
  C      158.525      -9.705     141.411
  O      159.560      -8.895     140.866
  C      157.464      -9.992     140.347
  O      156.896      -8.773     139.834
  C      158.017     -10.716     139.132
  O      158.193     -12.092     139.409
  C      156.952     -10.432     138.080
  O      155.925     -11.437     138.078
  C      156.381      -9.065     138.523
  N      156.687      -7.998     137.585
  C      155.591      -7.429     136.927
  O      154.452      -7.852     137.139
  N      155.818      -6.418     136.030
  C      157.031      -6.028     135.791
  N      157.195      -5.025     134.887
  C      158.217      -6.620     136.444
  C      157.975      -7.593     137.320
  O      161.775      -9.918     141.462
  O      161.602      -7.364     141.424
  H      156.372     -12.269     137.822
  H      162.456      -9.715     140.794
  H      159.210      -6.266     136.207
  H      158.785      -8.086     137.846
  H      155.290      -9.123     138.623
  H      157.379     -10.416     137.073
  H      158.969     -10.263     138.827
  H      156.663     -10.589     140.807
  H      156.361      -4.645     134.457
  H      158.068      -9.205     142.267
  H      158.094      -4.650     134.622
  H      158.966     -10.633     141.789
  P      159.677     -12.687     139.320
  C      159.212     -14.051     141.445
  O      159.609     -14.094     140.088
  O      160.468     -11.774     140.374
  O      160.334     -12.690     137.982
  H      161.420     -11.977     140.345
  H      159.006     -15.068     141.782
  H      158.306     -13.451     141.564
  H      160.020     -13.634     142.054
  H      161.089      -8.555     145.243
  H      161.725      -7.371     144.127
  H      162.353      -9.001     144.122

 3  4  5  6  7  8  9  10  11  12  13  21  23  27  28  29  30  32 0
 6-311+G(2d,p)
 ****
 34  35 0
 6-311+G(2d,p)
 ****
 1  2  14  15  16  17  18  19  20  22  24  25  26 0
 3-21G
 ****
 31  33  36  37  38  39  40  41  42  43  44  45  46 0
 3-21G
 ****


