%nproc=1
%NoSave
%Mem=1900MB
#P OB98/GEN NMR

erre ene a

0 1
  C     -389.590    1026.614     -63.726
  O     -390.432    1025.472     -63.740
  P     -391.994    1025.694     -64.080
  C     -392.608    1025.123     -61.625
  O     -392.798    1024.825     -63.011
  C     -393.912    1024.997     -60.859
  O     -394.815    1026.065     -61.260
  C     -394.693    1023.709     -61.110
  O     -394.173    1022.618     -60.337
  C     -396.085    1024.098     -60.649
  O     -396.171    1023.991     -59.209
  C     -396.186    1025.569     -61.074
  N     -400.722    1026.442     -63.138
  C     -400.365    1026.301     -61.820
  N     -401.343    1026.439     -60.903
  N     -399.141    1026.034     -61.413
  C     -398.248    1025.982     -62.428
  C     -398.478    1026.111     -63.790
  C     -399.843    1026.328     -64.211
  O     -400.222    1026.410     -65.378
  N     -397.310    1025.999     -64.499
  C     -396.376    1025.848     -63.586
  N     -396.893    1025.790     -62.318
  O     -392.179    1024.881     -65.446
  O     -392.408    1027.121     -64.235
  H     -397.066    1024.299     -58.954
  H     -392.930    1025.245     -65.954
  H     -401.667    1026.666     -63.388
  H     -395.308    1025.747     -63.811
  H     -396.632    1026.193     -60.299
  H     -396.866    1023.458     -61.078
  H     -402.272    1026.765     -61.139
  H     -394.718    1023.466     -62.179
  H     -401.105    1026.373     -59.928
  H     -393.698    1025.119     -59.792
  H     -392.225    1026.145     -61.526
  H     -391.865    1024.435     -61.220
  P     -394.315    1021.148     -60.991
  C     -394.827    1020.201     -58.616
  O     -394.013    1020.149     -59.786
  O     -393.023    1021.047     -61.918
  O     -395.578    1020.930     -61.754
  H     -393.174    1020.410     -62.655
  H     -395.882    1020.409     -58.908
  H     -394.456    1020.962     -57.955
  H     -394.794    1019.224     -58.135
  H     -388.590    1026.317     -63.488
  H     -389.941    1027.307     -62.990
  H     -389.604    1027.079     -64.690

 3  4  5  6  7  8  9  10  11  12  23  26  30  31  33  0
 6-311+G(2d,p)
 ****
 35  36  37  38 0
 6-311+G(2d,p)
 ****
 1  2  13  14  15  16  17  18  19  20  21  22  24  25  27  28  29 0
 3-21G
 ****
 32  34  39  40  41  42  43  44  45  46  47  48  49 0
 3-21G
 ****


