%nproc=1
%NoSave
%Mem=1900MB
#P OB98/GEN NMR

erre ene a

0 1
  C     -169.699     329.574     526.274
  O     -170.256     328.444     525.631
  H     -169.945     330.465     525.687
  H     -168.612     329.489     526.338
  H     -170.125     329.687     527.273
  P     -169.908     326.985     526.196
  C     -167.922     326.654     524.589
  O     -168.338     326.761     525.946
  C     -167.140     325.358     524.361
  O     -167.209     325.018     522.952
  C     -165.662     325.455     524.756
  O     -165.261     324.206     525.326
  C     -164.974     325.673     523.424
  O     -163.617     325.272     523.463
  C     -165.862     324.872     522.463
  N     -165.726     325.353     521.088
  C     -164.814     324.666     520.276
  O     -164.193     323.699     520.724
  N     -164.582     325.119     519.003
  C     -165.164     326.201     518.592
  N     -164.857     326.620     517.334
  C     -166.107     326.977     519.426
  C     -166.342     326.500     520.650
  O     -170.781     325.869     525.723
  O     -169.999     327.167     527.785
  H     -163.568     324.292     523.458
  H     -170.899     326.966     528.094
  H     -166.559     327.882     519.036
  H     -167.015     327.009     521.331
  H     -165.607     323.806     522.494
  H     -165.002     326.739     523.163
  H     -165.456     326.270     525.460
  H     -167.640     324.551     524.909
  H     -164.188     326.072     516.815
  H     -167.277     327.516     524.364
  H     -165.216     327.473     516.922
  H     -168.795     326.688     523.929
  P     -164.337     324.167     526.638
  C     -162.150     323.419     525.547
  O     -162.817     324.482     526.223
  O     -164.509     322.951     527.491
  O     -164.772     325.485     527.451
  H     -164.656     325.327     528.406
  H     -161.150     323.718     525.312
  H     -162.674     323.186     524.644
  H     -162.125     322.555     526.178

 6  7  8  9  10  11  12  13  14  15  16  26  30  31  32  33  35 0
 6-311+G(2d,p)
 ****
 37  38 0
 6-311+G(2d,p)
 ****
 1  2  3  4  5  17  18  19  20  21  22  23  24  25 0
 3-21G
 ****
 27  28  29  34  36  39  40  41  42  43  44  45  46 0
 3-21G
 ****


