%nproc=1
%NoSave
%Mem=1900MB
#P OB98/GEN NMR

erre ene a

0 1
  C       75.864     272.092     -55.648
  O       76.605     270.940     -55.312
  H       75.635     272.643     -54.733
  H       74.923     271.805     -56.125
  H       76.438     272.739     -56.317
  P       77.188     270.058     -56.518
  C       79.177     269.232     -55.068
  O       78.047     268.876     -55.851
  C       79.354     268.248     -53.911
  O       78.239     268.400     -52.994
  C       79.405     266.784     -54.351
  O       80.364     266.097     -53.542
  C       78.015     266.264     -54.036
  O       77.987     264.853     -53.828
  C       77.641     267.103     -52.808
  N       76.193     267.192     -52.640
  C       75.507     265.989     -52.458
  O       76.120     264.920     -52.453
  N       74.141     266.015     -52.344
  C       73.506     267.136     -52.488
  N       72.149     267.093     -52.395
  C       74.183     268.422     -52.750
  C       75.514     268.378     -52.805
  O       78.305     271.002     -57.163
  O       76.181     269.601     -57.520
  H       77.061     264.587     -53.642
  H       78.386     270.851     -58.123
  H       73.610     269.325     -52.888
  H       76.097     269.269     -53.000
  H       78.073     266.668     -51.897
  H       77.341     266.494     -54.871
  H       79.664     266.659     -55.406
  H       80.260     268.523     -53.358
  H       71.720     266.190     -52.233
  H       79.025     270.236     -54.661
  H       71.552     267.894     -52.534
  H       80.070     269.240     -55.702
  P       81.620     265.454     -54.302
  C       82.899     265.657     -52.050
  O       82.625     264.867     -53.200
  O       82.393     266.728     -54.882
  O       81.239     264.499     -55.386
  H       82.285     266.772     -55.851
  H       83.581     265.134     -51.413
  H       81.988     265.844     -51.520
  H       83.334     266.587     -52.352

 6  7  8  9  10  11  12  13  14  15  16  26  30  31  32  33  35 0
 6-311+G(2d,p)
 ****
 37  38 0
 6-311+G(2d,p)
 ****
 1  2  3  4  5  17  18  19  20  21  22  23  24  25 0
 3-21G
 ****
 27  28  29  34  36  39  40  41  42  43  44  45  46 0
 3-21G
 ****


