%nproc=1
%NoSave
%Mem=1900MB
#P OB98/GEN NMR

erre ene a

0 1
  C     -173.270    -412.958     320.977
  O     -173.331    -414.010     320.028
  P     -171.990    -414.711     319.482
  C     -170.080    -413.925     317.926
  O     -171.182    -413.539     318.739
  C     -169.901    -412.919     316.790
  O     -169.643    -411.615     317.330
  C     -168.741    -413.222     315.847
  O     -169.061    -414.279     314.959
  C     -168.525    -411.866     315.204
  O     -169.485    -411.648     314.160
  C     -168.812    -410.902     316.379
  N     -167.591    -410.414     317.009
  C     -167.655    -409.167     317.626
  O     -168.689    -408.508     317.635
  N     -166.526    -408.669     318.263
  C     -165.438    -409.366     318.257
  N     -164.379    -408.870     318.955
  C     -165.297    -410.665     317.574
  C     -166.400    -411.126     316.975
  O     -172.206    -415.935     318.668
  O     -171.100    -414.965     320.790
  H     -169.284    -410.786     313.753
  H     -171.288    -415.832     321.232
  H     -164.349    -411.197     317.586
  H     -166.389    -412.085     316.475
  H     -169.388    -410.048     316.045
  H     -167.528    -411.739     314.768
  H     -167.848    -413.495     316.431
  H     -170.844    -412.873     316.227
  H     -164.562    -408.063     319.554
  H     -170.289    -414.912     317.503
  H     -163.600    -409.453     319.237
  H     -169.180    -413.977     318.547
  P     -167.967    -415.440     314.750
  C     -165.898    -415.716     313.210
  O     -167.037    -414.928     313.536
  O     -168.827    -416.642     314.127
  O     -167.242    -415.835     315.991
  H     -169.014    -417.305     314.808
  H     -165.527    -415.386     312.234
  H     -166.170    -416.780     313.139
  H     -165.116    -415.578     313.956
  H     -174.261    -412.630     321.210
  H     -172.711    -412.142     320.569
  H     -172.792    -413.308     321.868

 3  4  5  6  7  8  9  10  11  12  13  23  27  28  29  30  32 0
 6-311+G(2d,p)
 ****
 34  35 0
 6-311+G(2d,p)
 ****
 1  2  14  15  16  17  18  19  20  21  22  24  25  26 0
 3-21G
 ****
 31  33  36  37  38  39  40  41  42  43  44  45  46 0
 3-21G
 ****


