%nproc=1
%NoSave
%Mem=1900MB
#P OB98/GEN NMR

erre ene a

0 1
  C      -69.342     102.806     -91.183
  O      -67.926     102.789     -91.167
  P      -67.213     101.348     -91.210
  C      -67.121     101.074     -88.614
  O      -67.626     100.603     -89.854
  C      -67.635     100.187     -87.479
  O      -69.071     100.270     -87.387
  C      -67.305      98.709     -87.642
  O      -65.982      98.445     -87.215
  C      -68.375      98.061     -86.771
  O      -67.998      98.100     -85.381
  C      -69.591      98.959     -87.037
  N      -73.298      95.708     -88.147
  C      -72.521      95.814     -87.010
  N      -72.806      94.956     -86.006
  N      -71.556      96.682     -86.867
  C      -71.376      97.468     -87.956
  C      -72.069      97.447     -89.145
  C      -73.167      96.517     -89.267
  O      -73.947      96.449     -90.213
  N      -71.584      98.379     -90.025
  C      -70.621      98.979     -89.356
  N      -70.468      98.479     -88.090
  O      -65.668     101.702     -91.008
  O      -67.465     100.552     -92.451
  H      -67.993      99.024     -85.076
  H      -65.202     101.719     -91.866
  H      -74.039      95.030     -88.193
  H      -70.022      99.794     -89.736
  H      -70.211      99.089     -86.142
  H      -68.530      97.009     -87.022
  H      -73.517      94.245     -86.054
  H      -67.443      98.399     -88.686
  H      -72.243      95.017     -85.166
  H      -67.219     100.571     -86.539
  H      -67.464     102.100     -88.453
  H      -66.027     101.066     -88.645
  P      -65.359      97.012     -87.576
  C      -65.828      95.969     -85.245
  O      -66.078      95.933     -86.638
  O      -63.871      97.100     -86.990
  O      -65.349      96.690     -89.033
  H      -63.259      96.615     -87.577
  H      -66.709      95.591     -84.723
  H      -65.613      96.983     -84.897
  H      -64.977      95.323     -85.018
  H      -69.687     103.818     -91.151
  H      -69.715     102.275     -90.332
  H      -69.694     102.337     -92.078

 3  4  5  6  7  8  9  10  11  12  23  26  30  31 0
 6-311+G(2d,p)
 ****
 33  35  36  37  38 0
 6-311+G(2d,p)
 ****
 1  2  13  14  15  16  17  18  19  20  21  22  24  25 0
 3-21G
 ****
 27  28  29  32  34  39  40  41  42  43  44  45  46  47  48  49 0
 3-21G
 ****


