%nproc=1
%NoSave
%Mem=1900MB
#P OB98/GEN NMR

erre ene a

0 1
  C     -228.725       7.258      61.048
  O     -227.332       7.062      60.891
  P     -226.396       7.134      62.192
  C     -227.078       4.782      63.145
  O     -227.080       6.190      63.297
  C     -227.103       4.099      64.516
  O     -227.363       2.682      64.332
  C     -225.798       4.227      65.313
  O     -226.152       4.328      66.698
  C     -225.105       2.905      65.036
  O     -224.136       2.577      66.019
  C     -226.306       1.956      64.991
  N     -226.031       0.701      64.291
  C     -226.216      -0.487      64.989
  O     -226.574      -0.544      66.165
  N     -225.942      -1.636      64.292
  C     -225.451      -1.709      63.021
  O     -225.208      -2.765      62.451
  C     -225.230      -0.419      62.350
  C     -225.535       0.704      63.000
  O     -226.699       8.616      62.709
  O     -224.962       6.842      61.919
  H     -227.620       8.888      62.566
  H     -223.334       3.104      65.840
  H     -226.106      -2.512      64.767
  H     -224.827      -0.434      61.345
  H     -225.380       1.666      62.527
  H     -226.652       1.740      66.010
  H     -224.598       2.956      64.065
  H     -225.209       5.098      65.014
  H     -227.943       4.510      65.091
  H     -226.179       4.475      62.611
  H     -227.944       4.482      62.546
  P     -225.186       5.174      67.669
  C     -226.907       7.063      68.237
  O     -225.684       6.694      67.635
  O     -223.855       5.215      66.775
  O     -224.960       4.568      69.014
  H     -224.024       5.476      65.855
  H     -226.903       8.143      68.403
  H     -227.047       6.562      69.196
  H     -227.735       6.813      67.567
  H     -229.206       7.180      60.095
  H     -228.904       8.229      61.459
  H     -229.118       6.513      61.708

 3  4  5  6  7  8  9  10  11  12  13  24  28  29  30  31  32 0
 6-311+G(2d,p)
 ****
 33  34 0
 6-311+G(2d,p)
 ****
 1  2  14  15  16  17  18  19  20  21  22  23  25  26  27 0
 3-21G
 ****
 35  36  37  38  39  40  41  42  43  44  45 0
 3-21G
 ****


