%nproc=1
%NoSave
%Mem=1900MB
#P OB98/GEN NMR

erre ene a

0 1
  C      138.710      49.272     427.307
  O      139.448      48.422     426.451
  H      138.975      49.045     428.343
  H      137.639      49.098     427.171
  H      138.946      50.320     427.103
  P      139.378      48.753     424.886
  C      141.646      49.945     424.329
  O      140.265      50.072     424.637
  C      142.181      51.259     423.768
  O      141.307      51.771     422.742
  C      142.245      52.390     424.781
  O      143.288      52.223     425.716
  C      142.444      53.585     423.858
  O      143.823      53.765     423.514
  C      141.617      53.180     422.615
  N      140.426      53.997     422.471
  C      140.655      55.331     422.109
  O      141.804      55.730     421.918
  N      139.584      56.179     422.013
  C      138.392      55.744     422.281
  N      137.376      56.645     422.199
  C      138.107      54.347     422.667
  C      139.161      53.535     422.743
  O      137.879      49.283     424.712
  O      139.732      47.615     423.989
  H      143.841      54.418     422.784
  H      137.625      49.957     425.363
  H      137.094      54.031     422.867
  H      139.043      52.493     423.019
  H      142.217      53.286     421.703
  H      142.108      54.514     424.326
  H      141.275      52.504     425.284
  H      143.165      51.066     423.323
  H      137.623      57.605     421.985
  H      141.808      49.133     423.613
  H      136.423      56.442     422.461
  H      142.171      49.682     425.252
  P      143.337      53.077     427.070
  C      141.308      51.920     428.158
  O      141.832      53.136     427.633
  O      144.004      54.405     426.964
  O      144.039      52.075     428.104
  H      143.567      51.236     428.245
  H      140.307      52.081     428.500
  H      141.916      51.593     428.976
  H      141.307      51.172     427.393

 6  7  8  9  10  11  12  13  14  15  16  26  30  31  32  33  35 0
 6-311+G(2d,p)
 ****
 37  38 0
 6-311+G(2d,p)
 ****
 1  2  3  4  5  17  18  19  20  21  22  23  24  25 0
 3-21G
 ****
 27  28  29  34  36  39  40  41  42  43  44  45  46 0
 3-21G
 ****


