%nproc=1
%NoSave
%Mem=1900MB
#P OB98/GEN NMR

erre ene a

0 1
  C      338.294     584.219    -180.880
  O      338.448     585.623    -180.944
  H      337.261     583.967    -181.137
  H      338.502     583.869    -179.861
  H      338.968     583.727    -181.588
  P      339.937     586.195    -180.776
  C      339.057     588.172    -179.288
  O      339.766     587.755    -180.439
  C      338.631     589.639    -179.409
  O      339.812     590.441    -179.671
  C      337.638     589.902    -180.537
  O      336.733     590.926    -180.117
  C      338.511     590.426    -181.668
  O      337.765     591.211    -182.602
  C      339.582     591.199    -180.876
  N      340.807     591.383    -181.641
  C      340.839     592.463    -182.536
  O      339.857     593.195    -182.655
  N      341.964     592.659    -183.304
  C      342.950     591.819    -183.229
  N      344.021     592.049    -184.035
  C      342.941     590.637    -182.338
  C      341.857     590.493    -181.588
  O      340.465     586.195    -182.289
  O      340.792     585.425    -179.823
  H      337.401     591.989    -182.135
  H      339.813     586.542    -182.922
  H      343.782     589.956    -182.325
  H      341.768     589.655    -180.885
  H      339.203     592.192    -180.586
  H      338.965     589.597    -182.214
  H      337.065     589.011    -180.820
  H      338.232     589.965    -178.446
  H      343.969     592.863    -184.644
  H      339.672     588.043    -178.387
  H      344.818     591.438    -184.107
  H      338.167     587.529    -179.184
  P      335.151     590.703    -180.273
  C      334.943     593.270    -179.945
  O      334.378     591.982    -179.675
  O      334.643     589.380    -179.810
  O      334.928     590.874    -181.855
  H      334.280     590.202    -182.139
  H      334.336     594.027    -179.494
  H      334.983     593.427    -181.003
  H      335.932     593.318    -179.540

 6  7  8  9  10  11  12  13  14  15  16  26  30  31  32  33  35 0
 6-311+G(2d,p)
 ****
 37  38 0
 6-311+G(2d,p)
 ****
 1  2  3  4  5  17  18  19  20  21  22  23  24  25 0
 3-21G
 ****
 27  28  29  34  36  39  40  41  42  43  44  45  46 0
 3-21G
 ****


