%nproc=1
%NoSave
%Mem=1900MB
#P OB98/GEN NMR

erre ene a

0 1
  C      581.007     443.918    1043.040
  O      581.695     445.135    1043.243
  H      579.944     444.055    1043.298
  H      581.411     443.135    1043.681
  H      581.065     443.622    1041.988
  P      583.261     445.195    1042.931
  C      583.889     443.938    1045.135
  O      583.953     445.161    1044.396
  C      585.202     443.704    1045.861
  O      586.315     443.590    1044.945
  C      585.605     444.817    1046.833
  O      584.824     444.836    1048.023
  C      587.046     444.423    1047.091
  O      587.094     443.303    1047.977
  C      587.516     444.031    1045.669
  N      588.177     445.129    1044.948
  C      589.541     445.281    1045.163
  O      590.149     444.508    1045.905
  N      590.197     446.328    1044.543
  C      589.527     447.157    1043.777
  N      590.225     448.152    1043.197
  C      588.077     447.030    1043.544
  C      587.466     446.012    1044.167
  O      583.713     446.303    1042.036
  O      583.617     443.737    1042.383
  H      588.021     442.980    1047.987
  H      584.580     443.716    1042.164
  H      587.561     447.766    1042.936
  H      586.389     445.875    1044.037
  H      588.204     443.176    1045.689
  H      587.648     445.223    1047.540
  H      585.588     445.789    1046.317
  H      585.128     442.730    1046.387
  H      591.228     448.211    1043.363
  H      583.678     443.131    1044.415
  H      589.792     448.895    1042.639
  H      583.075     443.988    1045.852
  P      583.965     446.181    1048.296
  C      585.549     447.745    1049.674
  O      584.506     446.786    1049.681
  O      582.508     445.608    1048.654
  O      583.938     447.158    1047.144
  H      581.918     445.654    1047.857
  H      585.776     448.032    1050.679
  H      585.239     448.605    1049.119
  H      586.420     447.322    1049.218

 6  7  8  9  10  11  12  13  14  15  16  26  30  31  32  33  35 0
 6-311+G(2d,p)
 ****
 37  38 0
 6-311+G(2d,p)
 ****
 1  2  3  4  5  17  18  19  20  21  22  23  24  25 0
 3-21G
 ****
 27  28  29  34  36  39  40  41  42  43  44  45  46 0
 3-21G
 ****


