%nproc=1
%NoSave
%Mem=1900MB
#P OB98/GEN NMR

erre ene a

0 1
  C     -593.690    -614.355      70.552
  O     -594.739    -613.534      70.034
  P     -595.958    -614.274      69.295
  C     -598.219    -613.353      70.209
  O     -597.203    -614.343      70.306
  C     -597.822    -612.104      71.004
  O     -596.656    -611.471      70.455
  C     -598.897    -611.030      71.002
  O     -599.936    -611.355      71.910
  C     -598.105    -609.782      71.394
  O     -598.069    -609.605      72.823
  C     -596.689    -610.097      70.849
  N     -596.307    -609.218      69.756
  C     -595.200    -609.623      68.991
  O     -594.597    -610.664      69.286
  N     -594.805    -608.836      67.949
  C     -595.428    -607.731      67.693
  N     -594.975    -606.982      66.656
  C     -596.579    -607.249      68.485
  C     -596.965    -608.040      69.497
  O     -595.469    -615.804      69.217
  O     -596.273    -613.731      67.941
  H     -598.996    -609.392      73.085
  H     -595.816    -616.227      68.414
  H     -597.062    -606.318      68.252
  H     -597.800    -607.759      70.134
  H     -595.944    -609.985      71.651
  H     -598.546    -608.881      70.972
  H     -599.303    -610.902      69.991
  H     -597.607    -612.410      72.045
  H     -594.177    -607.336      66.127
  H     -599.169    -613.746      70.575
  H     -595.392    -606.104      66.374
  H     -598.367    -613.112      69.153
  P     -601.043    -612.402      71.438
  C     -600.354    -613.759      73.498
  O     -600.640    -613.790      72.110
  O     -600.633    -612.653      69.897
  O     -602.475    -611.987      71.562
  H     -601.302    -613.202      69.460
  H     -600.294    -614.783      73.867
  H     -601.146    -613.240      74.041
  H     -599.397    -613.260      73.673
  H     -592.949    -613.737      71.015
  H     -593.244    -614.910      69.753
  H     -594.092    -615.033      71.276

 3  4  5  6  7  8  9  10  11  12  13  21  23  27  28  29  30  32 0
 6-311+G(2d,p)
 ****
 34  35 0
 6-311+G(2d,p)
 ****
 1  2  14  15  16  17  18  19  20  22  24  25  26 0
 3-21G
 ****
 31  33  36  37  38  39  40  41  42  43  44  45  46 0
 3-21G
 ****


