%nproc=1
%NoSave
%Mem=1900MB
#P OB98/GEN NMR

erre ene a

0 1
  C       15.503    -363.894     153.653
  O       16.012    -362.742     153.008
  H       14.438    -363.980     153.423
  H       15.621    -363.813     154.738
  H       16.010    -364.790     153.285
  P       17.540    -362.326     153.283
  C       18.041    -363.907     151.287
  O       18.400    -363.507     152.603
  C       19.176    -363.604     150.316
  O       20.419    -364.185     150.766
  C       18.981    -364.158     148.908
  O       18.026    -363.442     148.142
  C       20.392    -364.007     148.364
  O       20.637    -362.631     148.032
  C       21.237    -364.444     149.590
  N       21.627    -365.855     149.540
  C       22.699    -366.178     148.696
  O       23.268    -365.299     148.044
  N       23.082    -367.492     148.590
  C       22.440    -368.408     149.247
  N       22.828    -369.702     149.065
  C       21.314    -368.112     150.155
  C       20.962    -366.835     150.249
  O       17.893    -362.013     154.699
  O       17.810    -361.111     152.276
  H       20.204    -362.461     147.174
  H       18.741    -360.810     152.414
  H       20.809    -368.915     150.674
  H       20.133    -366.538     150.883
  H       22.140    -363.828     149.681
  H       20.572    -364.596     147.456
  H       18.731    -365.228     148.941
  H       19.318    -362.512     150.300
  H       23.579    -369.875     148.398
  H       17.125    -363.374     151.006
  H       22.223    -370.479     149.305
  H       17.842    -364.985     151.262
  P       17.396    -364.163     146.854
  C       15.737    -365.677     148.181
  O       16.877    -365.603     147.338
  O       18.687    -364.501     145.967
  O       16.372    -363.368     146.099
  H       18.854    -363.804     145.311
  H       15.527    -366.701     148.408
  H       14.896    -365.243     147.682
  H       15.929    -365.143     149.088

 6  7  8  9  10  11  12  13  14  15  16  26  30  31  32  33  35 0
 6-311+G(2d,p)
 ****
 37  38 0
 6-311+G(2d,p)
 ****
 1  2  3  4  5  17  18  19  20  21  22  23  24  25 0
 3-21G
 ****
 27  28  29  34  36  39  40  41  42  43  44  45  46 0
 3-21G
 ****


