%nproc=1
%NoSave
%Mem=1900MB
#P OB98/GEN NMR

erre ene a

0 1
  C     -730.366     -38.714      20.474
  O     -729.447     -37.810      19.887
  H     -730.302     -39.667      19.952
  H     -731.384     -38.327      20.381
  H     -730.117     -38.872      21.532
  P     -729.247     -36.399      20.623
  C     -726.755     -36.757      21.366
  O     -728.122     -36.646      21.732
  C     -726.311     -38.223      21.346
  O     -727.170     -38.950      20.430
  C     -724.865     -38.427      20.900
  O     -724.311     -39.528      21.636
  C     -725.004     -38.821      19.437
  O     -723.862     -39.545      18.973
  C     -726.319     -39.612      19.453
  N     -726.945     -39.674      18.138
  C     -726.507     -40.689      17.288
  O     -725.624     -41.468      17.650
  N     -727.043     -40.781      16.029
  C     -727.903     -39.884      15.626
  N     -728.389     -40.008      14.359
  C     -728.360     -38.765      16.487
  C     -727.852     -38.728      17.715
  O     -730.601     -36.279      21.474
  O     -728.997     -35.252      19.700
  H     -723.054     -39.092      19.308
  H     -730.845     -37.107      21.927
  H     -729.067     -38.042      16.098
  H     -728.145     -37.952      18.413
  H     -726.151     -40.633      19.816
  H     -725.101     -37.921      18.817
  H     -724.245     -37.545      21.048
  H     -726.482     -38.654      22.343
  H     -728.023     -40.784      13.803
  H     -726.123     -36.201      22.071
  H     -729.005     -39.348      13.932
  H     -726.633     -36.310      20.372
  P     -723.812     -39.293      23.132
  C     -724.793     -41.271      24.503
  O     -724.900     -39.892      24.163
  O     -723.328     -37.926      23.458
  O     -722.613     -40.359      23.274
  H     -721.888     -39.927      23.765
  H     -725.572     -41.531      25.189
  H     -723.842     -41.453      24.958
  H     -724.885     -41.865      23.618

 6  7  8  9  10  11  12  13  14  15  16  26  30  31  32  33  35 0
 6-311+G(2d,p)
 ****
 37  38 0
 6-311+G(2d,p)
 ****
 1  2  3  4  5  17  18  19  20  21  22  23  24  25 0
 3-21G
 ****
 27  28  29  34  36  39  40  41  42  43  44  45  46 0
 3-21G
 ****


