%nproc=1
%NoSave
%Mem=1900MB
#P OB98/GEN NMR

erre ene a

0 1
  C     -596.003     683.624    -341.689
  O     -596.336     684.986    -341.833
  H     -595.814     683.204    -342.680
  H     -596.839     683.080    -341.242
  H     -595.107     683.493    -341.077
  P     -596.382     685.918    -340.531
  C     -594.935     687.832    -341.467
  O     -595.029     686.776    -340.527
  C     -593.889     688.867    -341.035
  O     -594.350     689.521    -339.814
  C     -592.513     688.265    -340.739
  O     -591.531     689.260    -341.047
  C     -592.574     688.050    -339.237
  O     -591.292     687.881    -338.672
  C     -593.341     689.313    -338.807
  N     -593.911     689.188    -337.465
  C     -593.389     690.031    -336.484
  O     -592.458     690.832    -336.703
  N     -593.923     689.909    -335.234
  C     -594.868     688.995    -334.851
  O     -595.278     688.917    -333.701
  C     -595.353     688.103    -335.923
  C     -594.861     688.244    -337.156
  O     -596.683     685.216    -339.242
  O     -597.490     687.018    -340.867
  H     -590.768     688.703    -338.770
  H     -597.935     687.315    -340.052
  H     -593.554     690.518    -334.520
  H     -596.099     687.356    -335.654
  H     -595.203     687.596    -337.962
  H     -592.673     690.185    -338.806
  H     -593.154     687.156    -338.996
  H     -592.311     687.344    -341.287
  H     -593.823     689.653    -341.802
  H     -595.928     688.313    -341.532
  H     -594.672     687.433    -342.455
  P     -590.522     689.108    -342.302
  C     -591.576     691.124    -343.508
  O     -591.205     689.751    -343.590
  O     -590.007     687.714    -342.492
  O     -589.323     690.123    -341.981
  H     -588.493     689.798    -342.386
  H     -592.020     691.429    -344.432
  H     -590.706     691.718    -343.317
  H     -592.280     691.256    -342.713

 6  7  8  9  10  11  12  13  14  15  16  26  31  32  33  34  35 0
 6-311+G(2d,p)
 ****
 36  37 0
 6-311+G(2d,p)
 ****
 1  2  3  4  5  17  18  19  20  21  22  23  24  25 0
 3-21G
 ****
 27  28  29  30  38  39  40  41  42  43  44  45 0
 3-21G
 ****


