%nproc=1
%NoSave
%Mem=1900MB
#P OB98/GEN NMR

erre ene a

0 1
  C     -182.349      25.950    -137.840
  O     -181.406      25.669    -136.826
  P     -180.466      24.372    -136.889
  C     -181.473      23.393    -134.737
  O     -181.273      23.211    -136.130
  C     -180.856      22.248    -133.931
  O     -180.922      22.562    -132.513
  C     -181.532      20.886    -134.136
  O     -180.497      19.904    -134.031
  C     -182.466      20.803    -132.945
  O     -182.882      19.473    -132.665
  C     -181.613      21.474    -131.861
  N     -182.418      21.929    -130.734
  C     -181.997      21.535    -129.461
  O     -181.036      20.773    -129.333
  N     -182.705      21.965    -128.368
  C     -183.798      22.641    -128.538
  N     -184.454      23.044    -127.418
  C     -184.344      22.970    -129.868
  C     -183.605      22.599    -130.911
  O     -179.067      24.579    -136.416
  O     -180.560      23.914    -138.419
  H     -183.337      19.468    -131.795
  H     -179.996      24.494    -138.988
  H     -185.288      23.486    -129.962
  H     -183.922      22.798    -131.924
  H     -180.850      20.779    -131.485
  H     -183.366      21.398    -133.141
  H     -182.056      20.795    -135.090
  H     -179.794      22.182    -134.199
  H     -184.036      22.810    -126.527
  H     -182.550      23.412    -134.549
  H     -185.265      23.643    -127.439
  H     -181.062      24.356    -134.421
  P     -180.329      18.749    -135.130
  C     -182.002      17.252    -133.903
  O     -181.682      17.897    -135.123
  O     -179.077      17.942    -135.013
  O     -180.394      19.524    -136.533
  H     -180.050      18.945    -137.238
  H     -183.052      16.948    -133.925
  H     -181.844      17.921    -133.052
  H     -181.377      16.362    -133.785
  H     -182.867      26.856    -137.604
  H     -183.051      25.145    -137.908
  H     -181.843      26.062    -138.776

 3  4  5  6  7  8  9  10  11  12  13  23  27  28  29  30  32 0
 6-311+G(2d,p)
 ****
 34  35 0
 6-311+G(2d,p)
 ****
 1  2  14  15  16  17  18  19  20  21  22  24  25  26 0
 3-21G
 ****
 31  33  36  37  38  39  40  41  42  43  44  45  46 0
 3-21G
 ****


