%nproc=1
%NoSave
%Mem=1900MB
#P OB98/GEN NMR

erre ene a

0 1
  C      -68.008    -618.022     264.942
  O      -67.162    -619.116     264.658
  H      -69.004    -618.230     264.558
  H      -67.631    -617.113     264.458
  H      -68.068    -617.860     266.026
  P      -65.611    -618.948     265.048
  C      -63.937    -620.697     266.036
  O      -65.291    -620.275     265.902
  C      -63.877    -622.049     266.745
  O      -64.311    -621.929     268.111
  C      -64.783    -623.128     266.133
  O      -64.247    -623.693     264.942
  C      -64.805    -624.118     267.279
  O      -63.559    -624.826     267.342
  C      -64.976    -623.163     268.490
  N      -66.377    -622.923     268.839
  C      -67.160    -624.048     269.119
  O      -66.672    -625.181     269.066
  N      -68.494    -623.863     269.429
  C      -68.990    -622.665     269.469
  N      -70.315    -622.552     269.772
  C      -68.194    -621.454     269.193
  C      -66.911    -621.639     268.890
  O      -65.635    -617.805     266.183
  O      -64.675    -618.678     263.922
  H      -63.612    -625.414     268.122
  H      -64.737    -617.728     266.590
  H      -68.666    -620.482     269.226
  H      -66.268    -620.801     268.686
  H      -64.454    -623.556     269.375
  H      -65.602    -624.868     267.185
  H      -65.794    -622.751     265.956
  H      -62.826    -622.369     266.758
  H      -70.845    -623.400     269.893
  H      -63.393    -619.935     266.618
  H      -70.826    -621.682     269.687
  H      -63.466    -620.780     265.049
  P      -65.280    -623.974     263.743
  C      -65.056    -624.649     261.237
  O      -64.399    -624.278     262.439
  O      -65.889    -622.528     263.441
  O      -66.350    -624.984     264.049
  H      -66.824    -622.586     263.162
  H      -64.329    -624.815     260.470
  H      -65.719    -623.865     260.936
  H      -65.615    -625.547     261.399

 6  7  8  9  10  11  12  13  14  15  16  26  30  31  32  33  35 0
 6-311+G(2d,p)
 ****
 37  38 0
 6-311+G(2d,p)
 ****
 1  2  3  4  5  17  18  19  20  21  22  23  24  25 0
 3-21G
 ****
 27  28  29  34  36  39  40  41  42  43  44  45  46 0
 3-21G
 ****


