%nproc=1
%NoSave
%Mem=1900MB
#P OB98/GEN NMR

erre ene a

0 1
  C     -164.551     -20.344      13.123
  O     -163.778     -21.523      13.199
  P     -162.847     -21.826      14.465
  C     -163.285     -22.619      16.877
  O     -163.824     -21.959      15.736
  C     -163.888     -22.036      18.161
  O     -163.352     -20.689      18.358
  C     -165.427     -21.929      18.106
  O     -166.100     -22.532      19.212
  C     -165.653     -20.435      17.938
  O     -166.945     -20.005      18.322
  C     -164.470     -19.851      18.716
  N     -164.233     -18.445      18.405
  C     -164.938     -17.503      19.148
  O     -165.729     -17.777      20.046
  N     -164.756     -16.198      18.786
  C     -164.050     -15.755      17.709
  O     -164.010     -14.576      17.384
  C     -163.358     -16.800      16.938
  C     -163.458     -18.074      17.324
  O     -161.708     -20.884      14.663
  O     -162.401     -23.347      14.229
  H     -167.035     -20.141      19.283
  H     -163.134     -23.986      14.180
  H     -165.262     -15.504      19.316
  H     -162.797     -16.480      16.069
  H     -162.959     -18.865      16.775
  H     -164.614     -19.946      19.794
  H     -165.541     -20.198      16.873
  H     -165.825     -22.457      17.233
  H     -163.566     -22.662      18.996
  H     -162.204     -22.471      16.891
  H     -163.471     -23.696      16.806
  P     -167.593     -23.102      19.178
  C     -168.783     -25.145      18.092
  O     -167.642     -24.311      18.130
  O     -168.664     -22.076      19.008
  O     -167.744     -23.844      20.590
  H     -168.676     -23.820      20.873
  H     -168.479     -26.137      17.747
  H     -169.506     -24.734      17.381
  H     -169.248     -25.238      19.077
  H     -165.097     -20.334      12.203
  H     -163.906     -19.491      13.164
  H     -165.236     -20.313      13.945

 3  4  5  6  7  8  9  10  11  12  13  23  28  29  30  31  32 0
 6-311+G(2d,p)
 ****
 33  34 0
 6-311+G(2d,p)
 ****
 1  2  14  15  16  17  18  19  20  21  22  24  25  26  27 0
 3-21G
 ****
 35  36  37  38  39  40  41  42  43  44  45 0
 3-21G
 ****


