%nproc=1
%NoSave
%Mem=1900MB
#P OB98/GEN NMR

erre ene a

0 1
  C     -214.502    -487.867      35.960
  O     -213.982    -487.704      37.264
  H     -215.038    -486.956      35.684
  H     -215.202    -488.704      35.942
  H     -213.704    -488.036      35.235
  P     -212.911    -488.765      37.809
  C     -210.701    -488.070      36.673
  O     -211.498    -488.003      37.845
  C     -209.212    -488.091      37.025
  O     -208.451    -488.421      35.827
  C     -208.678    -486.751      37.551
  O     -207.613    -487.043      38.466
  C     -208.123    -486.119      36.284
  O     -207.234    -485.066      36.579
  C     -207.521    -487.346      35.597
  N     -207.273    -487.122      34.170
  C     -206.098    -486.461      33.842
  O     -205.299    -486.039      34.683
  N     -205.882    -486.249      32.509
  C     -206.741    -486.573      31.500
  O     -206.509    -486.335      30.321
  C     -207.989    -487.231      31.914
  C     -208.197    -487.474      33.207
  O     -212.890    -490.084      37.109
  O     -213.261    -488.918      39.364
  H     -206.498    -485.390      37.147
  H     -213.035    -489.817      39.671
  H     -205.025    -485.778      32.251
  H     -208.698    -487.492      31.136
  H     -209.108    -487.961      33.546
  H     -206.567    -487.619      36.067
  H     -208.935    -485.701      35.675
  H     -209.443    -486.138      38.035
  H     -209.032    -488.893      37.746
  H     -210.926    -487.188      36.059
  H     -210.964    -488.970      36.106
  P     -207.876    -487.283      40.030
  C     -209.201    -489.491      39.920
  O     -207.979    -488.864      40.300
  O     -209.015    -486.491      40.592
  O     -206.501    -486.875      40.746
  H     -206.679    -486.569      41.653
  H     -209.152    -490.536      40.147
  H     -209.357    -489.361      38.869
  H     -210.012    -489.047      40.458

 6  7  8  9  10  11  12  13  14  15  16  26  31  32  33  34  35 0
 6-311+G(2d,p)
 ****
 36  37 0
 6-311+G(2d,p)
 ****
 1  2  3  4  5  17  18  19  20  21  22  23  24  25 0
 3-21G
 ****
 27  28  29  30  38  39  40  41  42  43  44  45 0
 3-21G
 ****


