%nproc=1
%NoSave
%Mem=1900MB
#P OB98/GEN NMR

erre ene a

0 1
  C      -56.270     -27.969      -8.235
  O      -54.923     -28.248      -8.630
  P      -54.060     -27.038      -9.232
  C      -51.641     -27.957      -9.036
  O      -52.726     -27.636      -9.893
  C      -51.765     -29.387      -8.489
  O      -51.907     -30.345      -9.574
  C      -50.555     -29.832      -7.662
  O      -51.004     -30.764      -6.673
  C      -49.714     -30.575      -8.682
  O      -48.761     -31.434      -8.057
  C      -50.809     -31.276      -9.483
  N      -48.863     -35.064     -12.183
  C      -49.161     -34.992     -10.836
  N      -48.940     -36.107     -10.109
  N      -49.637     -33.921     -10.254
  C      -49.840     -32.895     -11.116
  C      -49.578     -32.841     -12.465
  C      -49.030     -34.024     -13.089
  O      -48.733     -34.141     -14.274
  N      -49.897     -31.613     -12.987
  C      -50.344     -30.926     -11.954
  N      -50.363     -31.671     -10.805
  O      -53.523     -26.294      -7.919
  O      -54.845     -26.108     -10.097
  H      -48.405     -32.030      -8.751
  H      -53.987     -25.444      -7.809
  H      -48.490     -35.911     -12.577
  H      -50.662     -29.895     -11.981
  H      -51.172     -32.184      -8.984
  H      -49.168     -29.858      -9.308
  H      -48.625     -36.980     -10.504
  H      -50.008     -29.020      -7.173
  H      -49.189     -36.095      -9.128
  H      -52.672     -29.450      -7.878
  H      -51.600     -27.253      -8.201
  H      -50.704     -27.821      -9.584
  P      -50.394     -30.609      -5.199
  C      -52.345     -31.430      -3.697
  O      -51.103     -31.730      -4.302
  O      -51.036     -29.243      -4.668
  O      -48.902     -30.587      -5.141
  H      -50.469     -28.846      -3.983
  H      -53.144     -31.921      -4.257
  H      -52.535     -30.353      -3.661
  H      -52.339     -31.818      -2.674
  H      -56.722     -28.861      -7.855
  H      -56.825     -27.621      -9.081
  H      -56.270     -27.217      -7.474

 3  4  5  6  7  8  9  10  11  12  23  26  30  31 0
 6-311+G(2d,p)
 ****
 33  35  36  37  38 0
 6-311+G(2d,p)
 ****
 1  2  13  14  15  16  17  18  19  20  21  22  24  25 0
 3-21G
 ****
 27  28  29  32  34  39  40  41  42  43  44  45  46  47  48  49 0
 3-21G
 ****


