%nproc=1
%NoSave
%Mem=1900MB
#P OB98/GEN NMR

erre ene a

0 1
  C     -123.556      42.355    1315.695
  O     -124.093      41.732    1316.844
  P     -123.088      40.836    1317.724
  C     -124.466      41.462    1319.830
  O     -123.867      40.412    1319.057
  C     -125.687      40.908    1320.578
  O     -125.304      39.741    1321.377
  C     -126.322      41.903    1321.594
  O     -127.094      42.883    1320.928
  C     -127.128      40.925    1322.451
  O     -128.358      40.564    1321.782
  C     -126.195      39.693    1322.526
  N     -125.807      37.873    1327.301
  C     -126.767      37.715    1326.360
  N     -126.804      38.234    1325.113
  C     -125.723      39.006    1324.879
  C     -124.671      39.255    1325.765
  C     -124.734      38.650    1327.022
  N     -123.765      38.807    1327.992
  N     -123.749      40.084    1325.211
  C     -124.209      40.334    1323.995
  N     -125.382      39.669    1323.745
  O     -121.978      41.889    1318.244
  O     -122.437      39.702    1316.978
  H     -128.856      41.381    1321.632
  H     -121.093      41.467    1318.297
  H     -127.597      37.091    1326.643
  H     -123.697      40.934    1323.238
  H     -126.732      38.729    1322.478
  H     -127.374      41.345    1323.430
  H     -125.530      42.352    1322.208
  H     -126.441      40.587    1319.856
  H     -124.823      42.265    1319.172
  H     -123.974      38.438    1328.916
  H     -123.034      39.492    1327.843
  H     -123.736      41.858    1320.536
  P     -126.906      44.419    1321.411
  C     -127.242      44.804    1318.893
  O     -127.511      45.264    1320.211
  O     -125.318      44.615    1321.232
  O     -127.436      44.711    1322.795
  H     -124.993      44.313    1320.379
  H     -127.739      45.422    1318.194
  H     -127.586      43.766    1318.765
  H     -126.139      44.851    1318.708
  H     -124.322      42.917    1315.203
  H     -123.177      41.608    1315.029
  H     -122.762      43.012    1315.984

 3  4  5  6  7  8  9  10  11  12  22  25  29  30  31  32 0
 6-311+G(2d,p)
 ****
 33  36  37 0
 6-311+G(2d,p)
 ****
 1  2  13  14  15  16  17  18  19  20  21  23  24  26 0
 3-21G
 ****
 27  28  34  35  38  39  40  41  42  43  44  45  46  47  48 0
 3-21G
 ****


