%nproc=1
%NoSave
%Mem=1900MB
#P OB98/GEN NMR

erre ene a

0 1
  C      167.552    -868.140     222.247
  O      168.887    -868.582     222.115
  H      167.524    -867.054     222.136
  H      167.158    -868.402     223.231
  H      166.929    -868.588     221.464
  P      169.161    -870.145     222.346
  C      171.305    -871.615     222.410
  O      170.693    -870.410     221.963
  C      172.565    -871.882     221.596
  O      172.217    -872.128     220.214
  C      173.542    -870.714     221.564
  O      174.322    -870.627     222.746
  C      174.378    -871.073     220.349
  O      175.432    -871.988     220.674
  C      173.347    -871.727     219.409
  N      172.956    -870.827     218.326
  C      173.130    -871.325     217.035
  O      173.579    -872.448     216.798
  N      172.799    -870.478     216.019
  C      172.368    -869.187     216.158
  O      172.148    -868.460     215.196
  C      172.225    -868.707     217.537
  C      172.522    -869.534     218.548
  O      168.347    -870.838     221.157
  O      168.752    -870.663     223.686
  H      167.538    -871.261     221.513
  H      175.841    -872.241     219.825
  H      172.915    -870.822     215.074
  H      171.889    -867.685     217.689
  H      172.427    -869.198     219.578
  H      173.759    -872.642     218.965
  H      174.842    -870.185     219.920
  H      173.008    -869.781     221.372
  H      173.056    -872.782     221.994
  H      170.609    -872.455     222.273
  H      171.533    -871.525     223.478
  P      175.130    -869.259     223.004
  C      176.526    -868.391     225.058
  O      175.549    -869.288     224.553
  O      173.939    -868.195     222.931
  O      176.239    -869.036     222.033
  H      173.084    -868.592     223.179
  H      176.664    -868.567     226.104
  H      176.198    -867.384     224.906
  H      177.452    -868.546     224.545

 6  7  8  9  10  11  12  13  14  15  16  27  31  32  33  34  35 0
 6-311+G(2d,p)
 ****
 36  37 0
 6-311+G(2d,p)
 ****
 1  2  3  4  5  17  18  19  20  21  22  23  24  25 0
 3-21G
 ****
 26  28  29  30  38  39  40  41  42  43  44  45 0
 3-21G
 ****


