%nproc=1
%NoSave
%Mem=1900MB
#P OB98/GEN NMR

erre ene a

0 1
  C     -293.600    -772.219    1414.708
  O     -294.552    -772.971    1415.431
  H     -292.887    -771.770    1415.407
  H     -294.086    -771.420    1414.146
  H     -293.048    -772.870    1414.024
  P     -295.771    -773.638    1414.637
  C     -295.520    -775.979    1415.702
  O     -296.325    -774.827    1415.566
  C     -295.737    -776.654    1417.071
  O     -295.392    -775.699    1418.125
  C     -297.205    -777.083    1417.319
  O     -297.172    -778.229    1418.178
  C     -297.757    -775.873    1418.048
  O     -298.997    -776.163    1418.656
  C     -296.568    -775.522    1418.950
  N     -296.665    -774.186    1419.515
  C     -297.505    -774.040    1420.614
  O     -298.138    -774.997    1421.065
  N     -297.631    -772.779    1421.180
  C     -297.027    -771.771    1420.648
  N     -297.210    -770.559    1421.232
  C     -296.174    -771.892    1419.434
  C     -296.029    -773.119    1418.930
  O     -295.484    -774.022    1413.215
  O     -296.939    -772.536    1414.721
  H     -299.684    -776.381    1417.979
  H     -297.022    -772.083    1413.862
  H     -295.693    -771.001    1419.020
  H     -295.426    -773.304    1418.049
  H     -296.500    -776.245    1419.790
  H     -297.948    -775.043    1417.351
  H     -297.746    -777.313    1416.388
  H     -295.059    -777.505    1417.169
  H     -297.815    -770.514    1422.056
  H     -294.471    -775.658    1415.626
  H     -296.804    -769.682    1420.877
  H     -295.726    -776.698    1414.905
  P     -297.805    -779.643    1417.762
  C     -295.488    -780.798    1417.620
  O     -296.807    -780.824    1418.179
  O     -298.261    -779.723    1416.325
  O     -299.057    -779.856    1418.757
  H     -299.756    -780.366    1418.304
  H     -294.932    -781.638    1417.980
  H     -294.995    -779.893    1417.910
  H     -295.552    -780.843    1416.553

 6  7  8  9  10  11  12  13  14  15  16  26  30  31  32  33  35 0
 6-311+G(2d,p)
 ****
 37  38 0
 6-311+G(2d,p)
 ****
 1  2  3  4  5  17  18  19  20  21  22  23  24  25 0
 3-21G
 ****
 27  28  29  34  36  39  40  41  42  43  44  45  46 0
 3-21G
 ****


