%nproc=1
%NoSave
%Mem=1900MB
#P OB98/GEN NMR

erre ene a

0 1
  C     -137.083      48.018       1.383
  O     -136.829      48.806       2.528
  H     -136.189      47.432       1.154
  H     -137.315      48.654       0.525
  H     -137.913      47.334       1.576
  P     -137.983      49.825       2.977
  C     -136.589      52.006       2.749
  O     -137.254      51.100       3.619
  C     -135.661      52.905       3.562
  O     -136.431      53.655       4.532
  C     -134.618      52.148       4.373
  O     -133.517      51.721       3.589
  C     -134.227      53.203       5.394
  O     -133.226      54.093       4.880
  C     -135.555      53.940       5.642
  N     -136.151      53.567       6.922
  C     -135.603      54.181       8.044
  O     -134.679      54.992       7.988
  N     -136.130      53.804       9.248
  C     -137.091      52.855       9.438
  O     -137.480      52.523      10.551
  C     -137.620      52.227       8.217
  C     -137.131      52.602       7.033
  O     -138.648      49.092       4.234
  O     -138.987      50.144       1.919
  H     -139.518      48.731       3.982
  H     -132.446      53.536       4.684
  H     -135.748      54.239      10.074
  H     -138.384      51.467       8.332
  H     -137.497      52.144       6.119
  H     -135.395      55.027       5.644
  H     -133.819      52.744       6.291
  H     -135.083      51.303       4.895
  H     -135.178      53.616       2.880
  H     -137.325      52.631       2.234
  H     -136.028      51.437       2.002
  P     -133.052      50.191       3.724
  C     -130.524      50.287       4.447
  O     -131.482      50.182       3.405
  O     -133.736      49.560       2.423
  O     -133.455      49.567       5.017
  H     -133.854      50.222       1.719
  H     -129.539      50.262       4.030
  H     -130.645      49.469       5.126
  H     -130.666      51.209       4.971

 6  7  8  9  10  11  12  13  14  15  16  27  31  32  33  34  35 0
 6-311+G(2d,p)
 ****
 36  37 0
 6-311+G(2d,p)
 ****
 1  2  3  4  5  17  18  19  20  21  22  23  24  25 0
 3-21G
 ****
 26  28  29  30  38  39  40  41  42  43  44  45 0
 3-21G
 ****


