%nproc=1
%NoSave
%Mem=1900MB
#P OB98/GEN NMR

erre ene a

0 1
  C       39.127     532.965      96.822
  O       40.316     533.540      97.328
  H       38.813     532.163      97.491
  H       39.311     532.546      95.830
  H       38.334     533.717      96.768
  P       40.861     534.852      96.588
  C       42.482     533.886      94.762
  O       41.209     534.437      95.077
  C       42.994     534.477      93.450
  O       42.650     533.633      92.331
  C       42.382     535.817      93.095
  O       42.845     536.865      93.918
  C       42.813     535.940      91.639
  O       44.185     536.360      91.541
  C       42.653     534.482      91.149
  N       41.452     534.290      90.344
  C       41.578     534.594      88.985
  O       42.654     534.989      88.533
  N       40.472     534.476      88.178
  C       39.347     534.064      88.681
  N       38.287     533.977      87.835
  C       39.179     533.709      90.107
  C       40.261     533.847      90.872
  O       42.307     535.047      97.244
  O       39.975     536.050      96.684
  H       44.704     535.715      92.060
  H       42.870     534.255      97.189
  H       38.226     533.361      90.480
  H       40.224     533.610      91.926
  H       43.520     534.181      90.548
  H       42.216     536.675      91.093
  H       41.287     535.753      93.119
  H       44.089     534.535      93.508
  H       38.433     534.249      86.874
  H       42.431     532.795      94.705
  H       37.359     533.698      88.121
  H       43.164     534.143      95.579
  P       41.835     537.990      94.450
  C       42.185     539.422      92.339
  O       41.246     538.716      93.144
  O       42.394     538.914      95.475
  O       40.567     537.140      94.962
  H       40.147     536.594      94.273
  H       41.680     539.861      91.504
  H       42.934     538.744      91.987
  H       42.646     540.192      92.921

 6  7  8  9  10  11  12  13  14  15  16  26  30  31  32  33  35 0
 6-311+G(2d,p)
 ****
 37  38 0
 6-311+G(2d,p)
 ****
 1  2  3  4  5  17  18  19  20  21  22  23  24  25 0
 3-21G
 ****
 27  28  29  34  36  39  40  41  42  43  44  45  46 0
 3-21G
 ****


