%nproc=1
%NoSave
%Mem=1900MB
#P OB98/GEN NMR

erre ene a

0 1
  C     -154.632     -64.611     339.261
  O     -155.453     -65.718     338.945
  P     -155.540     -66.981     339.928
  C     -153.785     -68.186     338.464
  O     -154.128     -67.736     339.776
  C     -152.414     -68.858     338.458
  O     -151.373     -67.889     338.743
  C     -152.251     -69.955     339.495
  O     -152.900     -71.138     339.074
  C     -150.731     -70.058     339.583
  O     -150.208     -70.876     338.525
  C     -150.300     -68.585     339.398
  N     -149.939     -67.956     340.665
  C     -148.602     -67.565     340.798
  O     -147.799     -67.790     339.896
  N     -148.197     -66.975     341.976
  C     -149.055     -66.811     342.936
  N     -148.594     -66.227     344.080
  C     -150.463     -67.231     342.850
  C     -150.835     -67.793     341.696
  O     -156.748     -67.843     339.765
  O     -155.430     -66.312     341.386
  H     -149.272     -70.604     338.405
  H     -156.265     -65.855     341.636
  H     -151.136     -67.086     343.682
  H     -151.850     -68.138     341.547
  H     -149.435     -68.524     338.724
  H     -150.401     -70.503     340.528
  H     -152.650     -69.615     340.462
  H     -152.240     -69.263     337.447
  H     -147.612     -65.984     344.112
  H     -153.771     -67.317     337.796
  H     -149.163     -66.087     344.901
  H     -154.556     -68.877     338.110
  P     -153.750     -72.000     340.123
  C     -151.734     -73.478     340.717
  O     -152.733     -72.594     341.210
  O     -154.694     -72.991     339.526
  O     -154.549     -70.887     340.962
  H     -155.477     -71.179     341.075
  H     -150.933     -73.547     341.453
  H     -151.322     -73.114     339.768
  H     -152.165     -74.470     340.571
  H     -154.710     -63.877     338.487
  H     -153.615     -64.934     339.346
  H     -154.950     -64.185     340.190

 3  4  5  6  7  8  9  10  11  12  13  23  27  28  29  30  32 0
 6-311+G(2d,p)
 ****
 34  35 0
 6-311+G(2d,p)
 ****
 1  2  14  15  16  17  18  19  20  21  22  24  25  26 0
 3-21G
 ****
 31  33  36  37  38  39  40  41  42  43  44  45  46 0
 3-21G
 ****


