%nproc=1
%NoSave
%Mem=1900MB
#P OB98/GEN NMR

erre ene a

0 1
  C       44.777      31.113    -128.956
  O       44.831      29.765    -129.391
  P       45.355      28.652    -128.367
  C       43.008      28.672    -127.249
  O       44.414      28.703    -127.068
  C       42.330      28.017    -126.044
  O       40.915      27.811    -126.340
  C       42.919      26.651    -125.662
  O       42.825      26.524    -124.236
  C       41.958      25.682    -126.324
  O       42.012      24.376    -125.772
  C       40.634      26.418    -126.096
  N       39.555      25.927    -126.951
  C       38.318      25.704    -126.356
  O       38.085      25.893    -125.163
  N       37.349      25.186    -127.172
  C       37.514      24.795    -128.469
  O       36.637      24.229    -129.110
  C       38.842      25.054    -129.045
  C       39.786      25.601    -128.274
  O       46.746      29.252    -127.853
  O       45.517      27.291    -128.956
  H       41.249      23.880    -126.118
  H       47.492      28.831    -128.320
  H       36.443      25.029    -126.760
  H       39.001      24.775    -130.078
  H       40.780      25.784    -128.668
  H       40.331      26.333    -125.044
  H       42.195      25.607    -127.392
  H       43.954      26.513    -125.990
  H       42.385      28.707    -125.194
  H       42.774      28.099    -128.148
  H       42.634      29.692    -127.395
  P       43.893      25.581    -123.494
  C       45.702      27.467    -123.522
  O       45.344      26.146    -123.867
  O       43.765      24.242    -124.366
  O       43.609      25.379    -122.042
  H       43.720      24.419    -125.320
  H       45.248      27.773    -122.576
  H       45.381      28.148    -124.314
  H       46.789      27.525    -123.426
  H       44.408      31.729    -129.749
  H       45.758      31.438    -128.678
  H       44.124      31.190    -128.112

 3  4  5  6  7  8  9  10  11  12  13  23  28  29  30  31  32 0
 6-311+G(2d,p)
 ****
 33  34 0
 6-311+G(2d,p)
 ****
 1  2  14  15  16  17  18  19  20  21  22  24  25  26 0
 3-21G
 ****
 27  35  36  37  38  39  40  41  42  43  44  45 0
 3-21G
 ****


