%nproc=1
%NoSave
%Mem=1900MB
#P OB98/GEN NMR

erre ene a

0 1
  C     -191.029     202.497     260.434
  O     -190.811     203.699     261.146
  H     -192.098     202.270     260.445
  H     -190.490     201.671     260.910
  H     -190.702     202.608     259.397
  P     -189.290     204.184     261.301
  C     -188.849     202.832     263.476
  O     -188.944     204.113     262.867
  C     -188.963     202.978     264.992
  O     -188.976     201.670     265.612
  C     -187.803     203.724     265.632
  O     -187.907     205.126     265.473
  C     -187.943     203.281     267.082
  O     -188.905     204.085     267.786
  C     -188.435     201.821     266.940
  N     -187.375     200.857     267.215
  C     -187.394     200.281     268.483
  O     -188.241     200.557     269.334
  N     -186.381     199.402     268.757
  C     -185.354     199.083     267.919
  O     -184.432     198.342     268.255
  C     -185.388     199.708     266.586
  C     -186.378     200.563     266.301
  O     -189.379     205.755     261.001
  O     -188.311     203.493     260.411
  H     -189.056     205.939     260.100
  H     -188.553     204.997     267.782
  H     -186.372     198.984     269.674
  H     -184.589     199.469     265.894
  H     -186.414     201.051     265.333
  H     -189.257     201.625     267.642
  H     -187.000     203.373     267.625
  H     -186.845     203.349     265.243
  H     -189.916     203.476     265.222
  H     -187.879     202.381     263.233
  H     -189.646     202.188     263.084
  P     -186.669     205.918     264.830
  C     -185.568     207.091     266.912
  O     -186.402     207.195     265.768
  O     -187.345     206.535     263.518
  O     -185.472     205.064     264.580
  H     -188.274     206.798     263.658
  H     -185.515     208.041     267.402
  H     -184.586     206.789     266.612
  H     -185.974     206.365     267.585

 6  7  8  9  10  11  12  13  14  15  16  27  31  32  33  34  35 0
 6-311+G(2d,p)
 ****
 36  37 0
 6-311+G(2d,p)
 ****
 1  2  3  4  5  17  18  19  20  21  22  23  24  25 0
 3-21G
 ****
 26  28  29  30  38  39  40  41  42  43  44  45 0
 3-21G
 ****


