%nproc=1
%NoSave
%Mem=1900MB
#P OB98/GEN NMR

erre ene a

0 1
  C       16.484     -14.306      -4.126
  O       17.609     -14.206      -3.274
  P       17.680     -13.042      -2.179
  C       18.990     -10.897      -2.714
  O       17.803     -11.645      -2.957
  C       20.165     -11.505      -3.478
  O       19.790     -11.776      -4.844
  C       21.386     -10.598      -3.560
  O       22.093     -10.590      -2.335
  C       22.140     -11.224      -4.727
  O       22.897     -12.364      -4.288
  C       20.990     -11.665      -5.644
  N       22.115     -10.676     -10.519
  C       22.614     -11.575      -9.645
  N       22.289     -11.751      -8.346
  C       21.358     -10.859      -7.970
  C       20.781      -9.861      -8.739
  C       21.178      -9.800     -10.086
  N       20.632      -8.929     -11.003
  N       19.889      -9.124      -7.983
  C       19.936      -9.662      -6.782
  N       20.760     -10.751      -6.744
  O       18.678     -13.249      -1.090
  O       16.195     -12.991      -1.583
  H       22.295     -12.930      -3.771
  H       16.224     -13.183      -0.627
  H       23.370     -12.247     -10.041
  H       19.384      -9.312      -5.920
  H       21.172     -12.656      -6.077
  H       22.841     -10.529      -5.197
  H       21.079      -9.582      -3.834
  H       20.424     -12.460      -3.002
  H       19.196     -10.917      -1.640
  H       20.883      -9.067     -11.969
  H       19.740      -8.493     -10.781
  H       18.833      -9.859      -3.025
  P       23.205      -9.472      -2.064
  C       25.642     -10.267      -2.114
  O       24.513      -9.905      -2.883
  O       23.436      -9.124      -0.631
  O       22.673      -8.206      -2.889
  H       22.941      -7.386      -2.434
  H       26.136      -9.366      -1.741
  H       26.339     -10.817      -2.750
  H       25.354     -10.902      -1.271
  H       16.611     -15.137      -4.788
  H       16.388     -13.406      -4.697
  H       15.602     -14.450      -3.537

 3  4  5  6  7  8  9  10  11  12  22  25  29  30  31  32 0
 6-311+G(2d,p)
 ****
 33  36  37 0
 6-311+G(2d,p)
 ****
 1  2  13  14  15  16  17  18  19  20  21  23  24  26 0
 3-21G
 ****
 27  28  34  35  38  39  40  41  42  43  44  45  46  47  48 0
 3-21G
 ****


