%nproc=1
%NoSave
%Mem=1900MB
#P OB98/GEN NMR

erre ene a

0 1
  C       29.335     761.928    -507.613
  O       29.421     762.794    -506.476
  P       30.688     763.770    -506.241
  C       29.785     766.013    -507.126
  O       30.667     764.918    -507.350
  C       30.310     767.308    -507.745
  O       31.447     767.793    -507.004
  C       30.775     767.173    -509.201
  O       29.665     767.188    -510.076
  C       31.694     768.388    -509.323
  O       30.933     769.582    -509.562
  C       32.363     768.446    -507.943
  N       37.409     769.244    -507.701
  C       36.350     770.088    -507.696
  N       35.033     769.795    -507.767
  C       34.852     768.475    -507.832
  C       35.828     767.479    -507.859
  C       37.155     767.910    -507.799
  N       38.237     767.045    -507.827
  N       35.247     766.237    -507.958
  C       33.935     766.467    -507.978
  N       33.651     767.801    -507.897
  O       31.990     763.044    -506.113
  O       30.341     764.566    -504.890
  H       30.126     769.341    -510.037
  H       31.169     764.811    -504.424
  H       36.603     771.151    -507.607
  H       33.185     765.683    -508.041
  H       32.486     769.465    -507.590
  H       32.408     768.291    -510.153
  H       31.350     766.257    -509.328
  H       29.527     768.073    -507.649
  H       29.683     766.140    -506.046
  H       39.159     767.431    -507.797
  H       38.066     766.059    -507.940
  H       28.820     765.765    -507.556
  P       29.345     765.884    -510.968
  C       27.202     765.759    -509.555
  O       28.236     765.020    -510.198
  O       30.542     765.116    -511.427
  O       28.530     766.483    -512.207
  H       28.685     765.917    -513.000
  H       27.565     766.153    -508.605
  H       26.362     765.075    -509.371
  H       26.876     766.584    -510.196
  H       28.420     761.374    -507.571
  H       30.163     761.250    -507.608
  H       29.357     762.512    -508.509

 3  4  5  6  7  8  9  10  11  12  22  25  29  30  31  32 0
 6-311+G(2d,p)
 ****
 33  36  37 0
 6-311+G(2d,p)
 ****
 1  2  13  14  15  16  17  18  19  20  21  23  24  26 0
 3-21G
 ****
 27  28  34  35  38  39  40  41  42  43  44  45  46  47  48 0
 3-21G
 ****


