%nproc=1
%NoSave
%Mem=1900MB
#P OB98/GEN NMR

erre ene a

0 1
  C      -83.020    -274.747     -37.596
  O      -83.546    -275.935     -38.200
  P      -84.200    -277.041     -37.243
  C      -86.576    -277.584     -36.328
  O      -85.786    -276.793     -37.203
  C      -88.064    -277.410     -36.654
  O      -88.454    -276.019     -36.642
  C      -88.456    -277.940     -38.026
  O      -88.683    -279.344     -38.004
  C      -89.771    -277.209     -38.257
  O      -90.834    -277.876     -37.546
  C      -89.490    -275.832     -37.641
  N      -90.824    -273.250     -41.782
  C      -91.541    -274.162     -41.034
  N      -92.803    -274.423     -41.445
  N      -91.065    -274.769     -39.977
  C      -89.800    -274.400     -39.674
  C      -88.984    -273.508     -40.337
  C      -89.520    -272.854     -41.512
  O      -88.927    -272.046     -42.225
  N      -87.761    -273.399     -39.732
  C      -87.836    -274.208     -38.692
  N      -89.047    -274.852     -38.621
  O      -83.732    -276.569     -35.782
  O      -83.769    -278.441     -37.536
  H      -91.669    -277.466     -37.844
  H      -83.679    -277.340     -35.188
  H      -91.239    -272.816     -42.593
  H      -87.047    -274.358     -37.965
  H      -90.368    -275.412     -37.136
  H      -90.057    -277.194     -39.313
  H      -93.251    -273.955     -42.216
  H      -87.721    -277.650     -38.789
  H      -93.353    -275.066     -40.888
  H      -88.643    -277.940     -35.885
  H      -86.390    -277.304     -35.288
  H      -86.264    -278.629     -36.417
  P      -87.404    -280.312     -38.084
  C      -86.479    -281.859     -36.215
  O      -86.951    -280.576     -36.570
  O      -86.266    -279.348     -38.667
  O      -87.590    -281.522     -38.934
  H      -85.636    -279.862     -39.209
  H      -86.066    -281.811     -35.200
  H      -85.692    -282.190     -36.898
  H      -87.302    -282.581     -36.224
  H      -82.620    -274.108     -38.355
  H      -82.245    -275.010     -36.907
  H      -83.802    -274.235     -37.075

 3  4  5  6  7  8  9  10  11  12  23  26  30  31 0
 6-311+G(2d,p)
 ****
 33  35  36  37  38 0
 6-311+G(2d,p)
 ****
 1  2  13  14  15  16  17  18  19  20  21  22  24  25 0
 3-21G
 ****
 27  28  29  32  34  39  40  41  42  43  44  45  46  47  48  49 0
 3-21G
 ****


