%nproc=1
%NoSave
%Mem=1900MB
#P OB98/GEN NMR

erre ene a

0 1
  C      -25.085      71.873      13.000
  O      -26.130      72.306      13.847
  H      -24.347      72.675      12.913
  H      -25.477      71.648      12.004
  H      -24.598      70.988      13.418
  P      -27.304      71.252      14.140
  C      -26.863      71.418      16.698
  O      -27.804      71.542      15.638
  C      -27.278      72.314      17.863
  O      -27.136      73.700      17.477
  C      -28.732      72.152      18.289
  O      -28.924      71.009      19.101
  C      -28.972      73.466      19.023
  O      -28.509      73.404      20.378
  C      -28.116      74.456      18.223
  N      -30.005      79.123      17.421
  C      -29.185      78.631      18.377
  N      -28.712      77.372      18.508
  C      -29.162      76.592      17.511
  C      -30.005      76.950      16.475
  C      -30.434      78.287      16.445
  N      -31.297      78.779      15.493
  N      -30.280      75.859      15.674
  C      -29.607      74.863      16.213
  N      -28.914      75.262      17.321
  O      -26.514      69.864      14.266
  O      -28.380      71.194      13.109
  H      -28.975      72.654      20.798
  H      -26.523      69.404      13.405
  H      -28.873      79.340      19.137
  H      -29.596      73.843      15.847
  H      -27.565      75.146      18.873
  H      -30.034      73.715      19.054
  H      -29.384      72.116      17.406
  H      -26.602      72.125      18.705
  H      -25.874      71.725      16.342
  H      -26.820      70.370      17.013
  H      -31.580      79.743      15.548
  H      -31.706      78.139      14.825
  P      -30.403      70.677      19.619
  C      -29.821      68.164      19.951
  O      -30.316      69.362      20.533
  O      -31.151      70.173      18.297
  O      -31.111      71.824      20.258
  H      -31.699      70.888      17.922
  H      -29.825      67.384      20.683
  H      -28.821      68.323      19.604
  H      -30.444      67.884      19.127

 6  7  8  9  10  11  12  13  14  15  25  28  32  33  34  35 0
 6-311+G(2d,p)
 ****
 36  37  40 0
 6-311+G(2d,p)
 ****
 1  2  3  4  5  16  17  18  19  20  21  22  23  24 0
 3-21G
 ****
 26  27  29  30  31  38  39 41  42  43  44  45  46  47  48 0
 3-21G
 ****


