%nproc=1
%NoSave
%Mem=1900MB
#P OB98/GEN NMR

erre ene a

0 1
  C      161.639     866.993     294.441
  O      162.365     866.751     295.634
  H      162.351     867.102     293.615
  H      161.069     867.923     294.527
  H      160.966     866.165     294.218
  P      161.555     866.406     296.973
  C      159.682     867.516     298.361
  O      160.546     867.622     297.235
  C      159.551     868.885     299.047
  O      159.212     869.896     298.084
  C      158.473     868.923     300.126
  O      158.904     868.283     301.307
  C      158.267     870.428     300.250
  O      159.281     871.019     301.083
  C      158.419     870.897     298.781
  N      157.131     871.107     298.116
  C      156.719     872.431     297.977
  O      157.360     873.392     298.411
  N      155.514     872.622     297.342
  C      154.654     871.634     296.952
  O      153.553     871.855     296.470
  C      155.129     870.262     297.145
  C      156.319     870.062     297.710
  O      162.385     866.012     298.148
  O      160.575     865.219     296.523
  H      159.214     871.984     300.954
  H      160.907     864.374     296.876
  H      155.198     873.565     297.248
  H      154.482     869.444     296.838
  H      156.691     869.046     297.863
  H      158.989     871.829     298.733
  H      157.305     870.678     300.696
  H      157.554     868.483     299.744
  H      160.535     869.139     299.473
  H      160.105     866.794     299.059
  H      158.693     867.162     298.024
  P      157.822     867.828     302.398
  C      155.762     868.962     303.432
  O      157.079     869.144     302.934
  O      158.333     866.903     303.463
  O      156.687     867.107     301.524
  H      156.593     866.174     301.812
  H      155.371     869.903     303.759
  H      155.783     868.279     304.256
  H      155.139     868.567     302.657

 6  7  8  9  10  11  12  13  14  15  16  26  31  32  33  34  35 0
 6-311+G(2d,p)
 ****
 36  37 0
 6-311+G(2d,p)
 ****
 1  2  3  4  5  17  18  19  20  21  22  23  24  25 0
 3-21G
 ****
 27  28  29  30  38  39  40  41  42  43  44  45 0
 3-21G
 ****


