%nproc=1
%NoSave
%Mem=1900MB
#P OB98/GEN NMR

erre ene a

0 1
  C     -201.511     194.750    -184.811
  O     -200.468     195.428    -185.481
  H     -202.151     194.266    -185.556
  H     -202.112     195.458    -184.238
  H     -201.101     193.984    -184.147
  P     -199.410     196.214    -184.563
  C     -197.582     195.806    -186.360
  O     -198.271     196.760    -185.562
  C     -196.597     196.509    -187.296
  O     -197.330     197.457    -188.123
  C     -195.494     197.288    -186.566
  O     -194.273     197.152    -187.301
  C     -195.969     198.727    -186.660
  O     -194.897     199.656    -186.528
  C     -196.634     198.716    -188.032
  N     -196.856     203.585    -189.285
  C     -195.784     202.715    -189.249
  N     -194.579     203.218    -189.602
  N     -195.882     201.459    -188.900
  C     -197.145     201.085    -188.600
  C     -198.290     201.849    -188.581
  C     -198.164     203.244    -188.951
  O     -199.072     204.068    -188.976
  N     -199.374     201.105    -188.184
  C     -198.888     199.897    -187.963
  N     -197.542     199.835    -188.206
  O     -198.667     195.043    -183.762
  O     -199.989     197.242    -183.651
  H     -195.250     200.550    -186.706
  H     -198.370     195.356    -182.887
  H     -196.724     204.545    -189.549
  H     -199.461     199.043    -187.629
  H     -195.905     198.767    -188.850
  H     -196.700     198.932    -185.870
  H     -194.433     204.167    -189.915
  H     -195.338     196.964    -185.536
  H     -193.777     202.595    -189.596
  H     -196.171     195.764    -187.976
  H     -198.312     195.244    -186.953
  H     -197.042     195.114    -185.706
  P     -193.225     196.044    -186.803
  C     -192.207     195.502    -189.130
  O     -191.985     196.009    -187.825
  O     -193.990     194.670    -187.104
  O     -192.862     196.159    -185.359
  H     -194.277     194.265    -186.268
  H     -191.295     195.543    -189.688
  H     -192.952     196.093    -189.620
  H     -192.541     194.488    -189.066

 6  7  8  9  10  11  12  13  14  15  26  29  33  34 0
 6-311+G(2d,p)
 ****
 36  38  39  40  41 0
 6-311+G(2d,p)
 ****
 1  2  3  4  5  16  17  18  19  20  21  22  23  24  25 0
 3-21G
 ****
 27  28  30  31  32  35  37  42  43  44  45  46  47 0
 3-21G
 ****
 48  49 0
 3-21G
 ****


