%nproc=1
%NoSave
%Mem=1900MB
#P OB98/GEN NMR

erre ene a

0 1
  C     -898.980    -300.911    -592.540
  O     -897.970    -300.580    -591.611
  H     -899.530    -299.999    -592.797
  H     -899.680    -301.633    -592.110
  H     -898.540    -301.320    -593.455
  P     -897.090    -301.768    -590.987
  C     -894.760    -300.698    -591.280
  O     -895.660    -301.710    -591.704
  C     -894.270    -299.876    -592.481
  O     -895.390    -299.135    -593.036
  C     -893.180    -298.837    -592.111
  O     -892.350    -298.667    -593.268
  C     -894.020    -297.598    -591.869
  O     -893.230    -296.432    -591.841
  C     -895.050    -297.733    -593.004
  N     -896.210    -296.887    -592.800
  C     -896.310    -295.752    -593.618
  O     -895.430    -295.516    -594.441
  N     -897.380    -294.915    -593.451
  C     -898.250    -295.145    -592.513
  N     -899.280    -294.260    -592.401
  C     -898.150    -296.297    -591.587
  C     -897.120    -297.125    -591.790
  O     -897.730    -303.118    -590.982
  O     -896.770    -301.273    -589.499
  H     -893.750    -295.666    -591.512
  H     -897.330    -301.762    -588.856
  H     -898.880    -296.430    -590.811
  H     -896.960    -297.993    -591.160
  H     -894.590    -297.478    -593.972
  H     -894.520    -297.658    -590.897
  H     -892.580    -299.135    -591.253
  H     -893.910    -300.555    -593.261
  H     -899.300    -293.488    -593.040
  H     -893.910    -301.192    -590.793
  H     -900.000    -294.336    -591.692
  H     -895.250    -300.038    -590.555
  P     -891.440    -299.845    -593.861
  C     -892.230    -300.561    -596.207
  O     -892.330    -300.785    -594.798
  O     -890.650    -300.581    -592.828
  O     -890.440    -299.113    -594.892
  H     -889.600    -299.605    -594.923
  H     -892.868    -301.247    -596.723
  H     -891.218    -300.710    -596.521
  H     -892.529    -299.558    -596.431

 6  7  8  9  10  11  12  13  14  15  16  26  30  31  32  33  35 0
 6-311+G(2d,p)
 ****
 37  38 0
 6-311+G(2d,p)
 ****
 1  2  3  4  5  17  18  19  20  21  22  23  24  25 0
 3-21G
 ****
 27  28  29  34  36  39  40  41  42  43  44  45  46 0
 3-21G
 ****


