%nproc=1
%NoSave
%Mem=1900MB
#P OB98/GEN NMR

erre ene a

0 1
  C      422.729    1032.244    -362.206
  O      422.707    1031.083    -363.009
  H      423.548    1032.163    -361.487
  H      421.786    1032.328    -361.651
  H      422.878    1033.135    -362.821
  P      421.683    1031.080    -364.247
  C      423.575    1030.701    -366.025
  O      422.400    1030.224    -365.401
  C      424.462    1029.533    -366.475
  O      425.327    1029.161    -365.375
  C      423.671    1028.294    -366.898
  O      424.361    1027.656    -367.971
  C      423.736    1027.396    -365.663
  O      423.542    1026.023    -365.980
  C      425.132    1027.749    -365.110
  N      425.272    1027.435    -363.691
  C      426.018    1026.300    -363.369
  O      426.509    1025.610    -364.264
  N      426.153    1025.946    -362.054
  C      425.535    1026.622    -361.139
  N      425.685    1026.212    -359.850
  C      424.700    1027.805    -361.432
  C      424.617    1028.158    -362.722
  O      421.790    1032.587    -364.763
  O      420.297    1030.640    -363.896
  H      422.713    1025.949    -366.511
  H      422.702    1032.915    -364.816
  H      424.192    1028.339    -360.640
  H      424.027    1029.010    -363.036
  H      425.904    1027.204    -365.667
  H      422.963    1027.692    -364.944
  H      422.651    1028.526    -367.196
  H      425.109    1029.882    -367.288
  H      426.249    1025.385    -359.685
  H      424.144    1031.340    -365.338
  H      425.206    1026.629    -359.062
  H      423.284    1031.307    -366.890
  P      423.658    1026.459    -368.771
  C      423.957    1027.285    -371.191
  O      424.327    1026.323    -370.220
  O      422.172    1026.459    -368.738
  O      424.224    1025.155    -368.001
  H      423.484    1024.520    -367.911
  H      424.471    1027.082    -372.108
  H      424.220    1028.262    -370.843
  H      422.901    1027.237    -371.356

 6  7  8  9  10  11  12  13  14  15  16  26  30  31  32  33  35 0
 6-311+G(2d,p)
 ****
 37  38 0
 6-311+G(2d,p)
 ****
 1  2  3  4  5  17  18  19  20  21  22  23  24  25 0
 3-21G
 ****
 27  28  29  34  36  39  40  41  42  43  44  45  46 0
 3-21G
 ****


