%nproc=1
%NoSave
%Mem=1900MB
#P OB98/GEN NMR

erre ene a

0 1
  C       42.936     -35.925      57.972
  O       44.042     -35.049      57.893
  H       42.911     -36.369      58.970
  H       43.043     -36.724      57.234
  H       42.004     -35.381      57.802
  P       44.213     -34.218      56.531
  C       46.803     -34.123      56.610
  O       45.586     -33.394      56.672
  C       47.884     -33.443      57.446
  O       48.171     -32.133      56.870
  C       47.500     -33.221      58.917
  O       48.683     -33.373      59.711
  C       47.097     -31.756      58.945
  O       47.170     -31.193      60.252
  C       48.101     -31.181      57.948
  N       48.093     -26.292      59.134
  C       48.618     -27.377      59.807
  N       49.239     -27.124      60.979
  N       48.543     -28.606      59.370
  C       47.925     -28.709      58.168
  C       47.359     -27.717      57.405
  C       47.426     -26.363      57.914
  O       46.962     -25.365      57.373
  N       46.801     -28.232      56.261
  C       47.032     -29.530      56.334
  N       47.710     -29.868      57.473
  O       43.083     -33.093      56.664
  O       44.070     -35.010      55.276
  H       46.524     -31.663      60.819
  H       42.262     -33.386      56.226
  H       48.167     -25.368      59.521
  H       46.729     -30.263      55.599
  H       49.104     -31.076      58.380
  H       46.069     -31.639      58.579
  H       49.376     -26.199      61.355
  H       46.717     -33.891      59.285
  H       49.669     -27.902      61.466
  H       48.807     -34.029      57.367
  H       47.134     -34.173      55.566
  H       46.633     -35.141      56.977
  P       49.011     -34.825      60.302
  C       49.613     -34.699      62.828
  O       50.075     -34.652      61.487
  O       49.885     -35.494      59.138
  O       47.805     -35.644      60.625
  H       49.781     -36.463      59.160
  H       50.440     -34.568      63.495
  H       49.152     -35.646      63.013
  H       48.900     -33.918      62.987

 6  7  8  9  10  11  12  13  14  15  26  29  33  34 0
 6-311+G(2d,p)
 ****
 36  38  39  40  41 0
 6-311+G(2d,p)
 ****
 1  2  3  4  5  16  17  18  19  20  21  22  23  24  25 0
 3-21G
 ****
 27  28  30  31  32  35  37  42  43  44  45  46  47 0
 3-21G
 ****
 48  49 0
 3-21G
 ****


