%nproc=1
%NoSave
%Mem=1900MB
#P OB98/GEN NMR

erre ene a

0 1
  C     -135.939    -161.140      81.681
  O     -136.957    -160.146      81.781
  P     -136.808    -158.626      81.311
  C     -136.196    -157.883      83.764
  O     -135.894    -157.852      82.373
  C     -135.578    -156.680      84.493
  O     -134.123    -156.774      84.396
  C     -135.987    -155.341      83.866
  O     -136.293    -154.327      84.827
  C     -134.847    -155.051      82.897
  O     -134.755    -153.686      82.521
  C     -133.645    -155.629      83.645
  N     -129.805    -154.068      80.657
  C     -130.796    -153.324      81.266
  N     -130.780    -151.991      81.042
  N     -131.735    -153.842      82.016
  C     -131.682    -155.190      82.094
  C     -130.756    -156.043      81.522
  C     -129.695    -155.456      80.734
  O     -128.779    -156.064      80.189
  N     -131.026    -157.352      81.835
  C     -132.115    -157.303      82.573
  N     -132.552    -156.005      82.767
  O     -138.070    -157.950      80.888
  O     -135.850    -158.720      80.013
  H     -134.094    -153.617      81.808
  H     -136.124    -157.995      79.417
  H     -129.091    -153.613      80.109
  H     -132.620    -158.161      83.005
  H     -133.220    -154.917      84.360
  H     -135.040    -155.629      81.978
  H     -130.167    -151.545      80.380
  H     -136.920    -155.441      83.302
  H     -131.632    -151.486      81.304
  H     -135.850    -156.731      85.555
  H     -135.761    -158.817      84.145
  H     -137.273    -157.933      83.924
  P     -137.703    -153.971      85.485
  C     -137.107    -151.497      85.814
  O     -138.011    -152.419      85.227
  O     -137.451    -154.031      87.064
  O     -138.822    -154.895      85.107
  H     -138.016    -154.726      87.466
  H     -137.566    -150.504      85.794
  H     -136.180    -151.470      85.233
  H     -136.892    -151.769      86.853
  H     -136.306    -162.067      82.069
  H     -135.083    -160.832      82.244
  H     -135.664    -161.267      80.655

 3  4  5  6  7  8  9  10  11  12  23  26  30  31 0
 6-311+G(2d,p)
 ****
 33  35  36  37  38 0
 6-311+G(2d,p)
 ****
 1  2  13  14  15  16  17  18  19  20  21  22  24  25 0
 3-21G
 ****
 27  28  29  32  34  39  40  41  42  43  44  45  46  47  48  49 0
 3-21G
 ****


