%nproc=1
%NoSave
%Mem=1900MB
#P OB98/GEN NMR

erre ene a

0 1
  C     -234.866    -209.521    -731.261
  O     -234.906    -208.108    -731.066
  P     -236.250    -207.511    -730.414
  C     -238.513    -206.578    -731.294
  O     -237.325    -207.310    -731.596
  C     -238.819    -205.547    -732.389
  O     -237.864    -204.442    -732.360
  C     -238.804    -206.120    -733.815
  O     -239.811    -205.426    -734.561
  C     -237.435    -205.704    -734.322
  O     -237.361    -205.760    -735.745
  C     -237.335    -204.310    -733.707
  N     -234.110    -201.141    -735.956
  C     -235.379    -201.503    -736.314
  N     -235.907    -200.889    -737.412
  N     -236.104    -202.379    -735.658
  C     -235.470    -202.878    -734.562
  C     -234.204    -202.583    -734.089
  C     -233.411    -201.636    -734.849
  O     -232.272    -201.279    -734.579
  N     -233.926    -203.273    -732.936
  C     -234.985    -204.023    -732.741
  N     -235.984    -203.790    -733.678
  O     -235.840    -206.019    -730.010
  O     -236.740    -208.300    -729.234
  H     -236.447    -205.523    -736.007
  H     -235.647    -205.971    -729.058
  H     -233.592    -200.465    -736.501
  H     -235.119    -204.741    -731.950
  H     -237.942    -203.574    -734.235
  H     -236.665    -206.376    -733.924
  H     -235.430    -200.177    -737.927
  H     -238.973    -207.206    -733.864
  H     -236.855    -201.109    -737.677
  H     -239.815    -205.117    -732.175
  H     -238.387    -206.067    -730.341
  H     -239.339    -207.292    -731.165
  P     -240.779    -206.287    -735.511
  C     -240.810    -207.026    -737.989
  O     -240.139    -206.311    -736.961
  O     -242.065    -205.341    -735.685
  O     -241.174    -207.622    -734.942
  H     -242.874    -205.883    -735.666
  H     -240.552    -206.589    -738.961
  H     -241.896    -206.988    -737.863
  H     -240.489    -208.065    -737.986
  H     -233.928    -209.794    -731.698
  H     -235.662    -209.814    -731.913
  H     -234.978    -210.014    -730.318

 3  4  5  6  7  8  9  10  11  12  23  26  30  31 0
 6-311+G(2d,p)
 ****
 33  35  36  37  38 0
 6-311+G(2d,p)
 ****
 1  2  13  14  15  16  17  18  19  20  21  22  24  25 0
 3-21G
 ****
 27  28  29  32  34  39  40  41  42  43  44  45  46  47  48  49 0
 3-21G
 ****


