%nproc=1
%NoSave
%Mem=1900MB
#P OB98/GEN NMR

erre ene a

0 1
  C     -291.889    -131.400     106.674
  O     -291.441    -131.500     105.338
  H     -292.973    -131.257     106.668
  H     -291.423    -130.534     107.154
  H     -291.656    -132.305     107.240
  P     -289.967    -132.064     105.059
  C     -288.840    -129.760     104.734
  O     -288.929    -130.933     105.534
  C     -287.594    -128.938     105.097
  O     -287.453    -127.844     104.158
  C     -287.750    -128.317     106.484
  O     -286.494    -128.120     107.133
  C     -288.369    -126.962     106.185
  O     -288.170    -126.009     107.226
  C     -287.674    -126.608     104.868
  N     -288.631    -121.757     103.642
  C     -287.851    -122.259     104.662
  N     -287.266    -121.351     105.481
  N     -287.673    -123.537     104.875
  C     -288.379    -124.331     104.028
  C     -289.201    -123.944     102.993
  C     -289.356    -122.527     102.744
  O     -290.049    -122.025     101.862
  N     -289.757    -125.036     102.369
  C     -289.280    -126.072     103.022
  N     -288.425    -125.698     104.032
  O     -289.836    -132.008     103.462
  O     -289.689    -133.438     105.585
  H     -288.605    -125.178     106.954
  H     -289.178    -132.656     103.151
  H     -288.720    -120.758     103.514
  H     -289.513    -127.110     102.805
  H     -286.692    -126.148     105.063
  H     -289.454    -127.092     106.071
  H     -287.511    -120.374     105.464
  H     -288.394    -128.918     107.135
  H     -286.942    -121.697     106.389
  H     -286.695    -129.557     105.004
  H     -289.745    -129.170     104.921
  H     -288.833    -130.029     103.674
  P     -286.156    -129.046     108.398
  C     -287.671    -127.788     110.131
  O     -287.401    -128.974     109.408
  O     -284.992    -128.252     109.149
  O     -285.745    -130.439     108.031
  H     -284.132    -128.690     108.999
  H     -288.534    -127.934     110.747
  H     -287.853    -126.986     109.446
  H     -286.830    -127.547     110.747

 6  7  8  9  10  11  12  13  14  15  26  29  33  34 0
 6-311+G(2d,p)
 ****
 36  38  39  40  41 0
 6-311+G(2d,p)
 ****
 1  2  3  4  5  16  17  18  19  20  21  22  23  24  25 0
 3-21G
 ****
 27  28  30  31  32  35  37  42  43  44  45  46  47 0
 3-21G
 ****
 48  49 0
 3-21G
 ****


