%nproc=1
%NoSave
%Mem=1900MB
#P OB98/GEN NMR

erre ene a

0 1
  C       98.436     127.224     608.068
  O       98.046     126.052     607.394
  P       98.546     124.617     607.920
  C       96.912     123.278     606.461
  O       98.270     123.544     606.751
  C       96.802     122.353     605.244
  O       97.674     121.209     605.398
  C       95.406     121.777     605.028
  O       94.538     122.744     604.460
  C       95.719     120.586     604.119
  O       95.854     121.024     602.749
  C       97.070     120.116     604.668
  N       96.700     115.029     604.795
  C       96.631     115.919     603.774
  N       96.703     117.256     603.827
  C       96.826     117.676     605.101
  C       96.860     116.890     606.246
  C       96.819     115.502     606.056
  N       96.928     114.595     607.086
  N       96.951     117.693     607.369
  C       96.962     118.928     606.913
  N       96.952     118.969     605.546
  O       98.045     124.230     609.272
  O      100.147     124.749     607.918
  H       95.094     121.597     602.556
  H      100.482     124.621     608.825
  H       96.533     115.479     602.780
  H       97.003     119.822     607.523
  H       97.770     119.849     603.858
  H       94.934     119.828     604.143
  H       95.007     121.401     605.982
  H       97.128     122.923     604.359
  H       96.406     124.219     606.255
  H       97.035     113.616     606.822
  H       97.321     114.908     607.965
  H       96.436     122.800     607.340
  P       92.949     122.534     604.548
  C       92.721     125.084     604.297
  O       92.276     123.810     603.851
  O       92.416     122.182     605.903
  O       92.682     121.356     603.486
  H       91.916     120.827     603.793
  H       92.245     125.309     605.264
  H       92.425     125.832     603.575
  H       93.816     125.091     604.416
  H       98.011     128.075     607.578
  H       99.503     127.303     608.058
  H       98.091     127.185     609.080

 3  4  5  6  7  8  9  10  11  12  22  25  29  30  31  32 0
 6-311+G(2d,p)
 ****
 33  36  37 0
 6-311+G(2d,p)
 ****
 1  2  13  14  15  16  17  18  19  20  21  23  24  26 0
 3-21G
 ****
 27  28  34  35  38  39  40  41  42  43  44  45  46  47  48 0
 3-21G
 ****


