%nproc=1
%NoSave
%Mem=1900MB
#P OB98/GEN NMR

erre ene a

0 1
  C     -137.156    -123.435    -336.079
  O     -137.739    -122.843    -337.241
  P     -137.273    -121.342    -337.589
  C     -137.692    -118.967    -336.630
  O     -138.066    -120.345    -336.606
  C     -138.908    -118.059    -336.369
  O     -139.870    -118.147    -337.462
  C     -139.660    -118.383    -335.074
  O     -140.147    -117.145    -334.541
  C     -140.843    -119.205    -335.575
  O     -141.893    -119.258    -334.606
  C     -141.159    -118.449    -336.857
  N     -145.926    -119.527    -338.136
  C     -145.440    -118.803    -337.074
  N     -146.354    -118.225    -336.256
  N     -144.159    -118.636    -336.834
  C     -143.365    -119.225    -337.757
  C     -143.729    -119.967    -338.871
  C     -145.147    -120.167    -339.098
  O     -145.635    -120.799    -340.025
  N     -142.631    -120.387    -339.575
  C     -141.606    -119.956    -338.873
  N     -141.994    -119.203    -337.776
  O     -137.939    -121.076    -339.020
  O     -135.787    -121.175    -337.614
  H     -142.162    -118.337    -334.410
  H     -137.270    -121.189    -339.726
  H     -146.918    -119.628    -338.270
  H     -140.567    -120.132    -339.092
  H     -141.677    -117.507    -336.674
  H     -140.524    -120.233    -335.778
  H     -147.345    -118.272    -336.415
  H     -139.061    -118.917    -334.318
  H     -146.026    -117.651    -335.488
  H     -138.550    -117.016    -336.335
  H     -137.268    -118.726    -337.605
  H     -136.904    -118.803    -335.884
  P     -139.730    -116.756    -333.040
  C     -140.099    -117.748    -330.682
  O     -140.454    -117.771    -332.056
  O     -140.509    -115.369    -332.794
  O     -138.253    -116.572    -332.832
  H     -139.943    -114.762    -332.286
  H     -140.950    -118.114    -330.087
  H     -139.848    -116.741    -330.351
  H     -139.254    -118.411    -330.512
  H     -137.540    -124.425    -335.952
  H     -137.398    -122.846    -335.219
  H     -136.093    -123.477    -336.195

 3  4  5  6  7  8  9  10  11  12  23  26  30  31 0
 6-311+G(2d,p)
 ****
 33  35  36  37  38 0
 6-311+G(2d,p)
 ****
 1  2  13  14  15  16  17  18  19  20  21  22  24  25 0
 3-21G
 ****
 27  28  29  32  34  39  40  41  42  43  44  45  46  47  48  49 0
 3-21G
 ****


