%nproc=1
%NoSave
%Mem=1900MB
#P OB98/GEN NMR

erre ene a

0 1
  C      127.446    -444.541    -907.923
  O      126.877    -443.352    -907.411
  H      128.119    -444.314    -908.750
  H      128.022    -445.023    -907.126
  H      126.663    -445.227    -908.253
  P      125.975    -442.490    -908.420
  C      128.045    -440.971    -908.840
  O      127.007    -441.762    -909.408
  C      129.360    -441.251    -909.554
  O      129.463    -442.659    -909.876
  C      129.521    -440.520    -910.893
  O      129.942    -439.175    -910.709
  C      130.601    -441.362    -911.545
  O      131.881    -441.028    -910.966
  C      130.191    -442.777    -911.133
  N      129.755    -446.758    -914.326
  C      130.748    -446.374    -913.498
  N      130.786    -445.290    -912.682
  C      129.652    -444.586    -912.783
  C      128.560    -444.847    -913.581
  C      128.628    -446.008    -914.385
  N      127.625    -446.399    -915.239
  N      127.587    -443.874    -913.441
  C      128.081    -443.060    -912.535
  N      129.332    -443.430    -912.108
  O      125.427    -441.289    -907.513
  O      124.873    -443.236    -909.103
  H      132.159    -440.187    -911.367
  H      124.636    -440.898    -907.916
  H      131.627    -447.005    -913.492
  H      127.575    -442.174    -912.153
  H      131.046    -443.434    -910.958
  H      130.677    -441.196    -912.612
  H      128.597    -440.572    -911.497
  H      130.189    -441.002    -908.868
  H      128.145    -441.227    -907.778
  H      127.849    -447.129    -915.895
  H      126.849    -445.768    -915.405
  H      127.780    -439.908    -908.931
  P      128.864    -438.018    -910.990
  C      130.566    -436.935    -912.644
  O      129.234    -437.418    -912.426
  O      129.304    -436.861    -909.969
  O      127.439    -438.425    -910.803
  H      128.541    -436.291    -909.733
  H      130.653    -436.569    -913.646
  H      131.264    -437.732    -912.494
  H      130.775    -436.143    -911.955

 6  7  8  9  10  11  12  13  14  15  25  28  32  33  34  35 0
 6-311+G(2d,p)
 ****
 36  39  40 0
 6-311+G(2d,p)
 ****
 1  2  3  4  5  16  17  18  19  20  21  22  23  24 0
 3-21G
 ****
 26  27  29  30  31  37  38  41  42  43  44  45  46  47 0
 3-21G
 ****
 48 0
 3-21G
 ****


