%nproc=1
%NoSave
%Mem=1900MB
#P OB98/GEN NMR

erre ene a

0 1
  C     -119.761    -550.720     132.234
  O     -120.132    -549.959     131.081
  P     -121.091    -548.686     131.335
  C     -119.374    -547.135     130.143
  O     -120.717    -547.583     130.230
  C     -119.185    -546.223     128.930
  O     -119.118    -546.982     127.713
  C     -120.317    -545.229     128.719
  O     -120.202    -544.108     129.577
  C     -120.086    -544.822     127.267
  O     -119.072    -543.799     127.202
  C     -119.583    -546.130     126.636
  N     -122.082    -546.427     122.239
  C     -121.098    -545.550     122.637
  N     -120.698    -544.637     121.723
  N     -120.546    -545.562     123.824
  C     -121.016    -546.549     124.622
  C     -121.994    -547.478     124.346
  C     -122.622    -547.435     123.039
  O     -123.519    -548.168     122.649
  N     -122.200    -548.326     125.408
  C     -121.331    -547.927     126.314
  N     -120.601    -546.845     125.887
  O     -120.506    -548.064     132.687
  O     -122.535    -549.033     131.452
  H     -118.258    -544.183     127.579
  H     -121.208    -547.580     133.165
  H     -122.479    -546.368     121.315
  H     -121.185    -548.389     127.283
  H     -118.723    -545.958     125.974
  H     -120.984    -544.410     126.796
  H     -121.026    -544.616     120.765
  H     -121.298    -545.718     128.815
  H     -119.949    -544.008     121.982
  H     -118.233    -545.683     129.059
  H     -118.700    -547.996     130.057
  H     -119.113    -546.618     131.071
  P     -121.515    -543.666     130.394
  C     -120.754    -544.043     132.847
  O     -120.980    -543.116     131.807
  O     -122.204    -545.063     130.755
  O     -122.438    -542.766     129.640
  H     -123.173    -544.955     130.834
  H     -120.250    -544.937     132.473
  H     -121.709    -544.324     133.307
  H     -120.122    -543.572     133.597
  H     -119.129    -551.531     131.938
  H     -120.641    -551.107     132.704
  H     -119.236    -550.091     132.922

 3  4  5  6  7  8  9  10  11  12  23  26  30  31  33  0
 6-311+G(2d,p)
 ****
 35  36  37  38 0
 6-311+G(2d,p)
 ****
 1  2  13  14  15  16  17  18  19  20  21  22  24  25  27  28  29 0
 3-21G
 ****
 32  34  39  40  41  42  43  44  45  46  47  48  49 0
 3-21G
 ****


