%nproc=1
%NoSave
%Mem=1900MB
#P OB98/GEN NMR

erre ene a

0 1
  C       45.508     322.885      22.556
  O       45.201     323.738      21.473
  P       44.353     325.077      21.688
  C       46.452     326.549      21.726
  O       45.290     326.144      22.434
  C       46.463     328.060      21.488
  O       47.750     328.454      20.950
  C       45.376     328.552      20.522
  O       44.905     329.810      21.018
  C       46.137     328.742      19.223
  O       45.480     329.640      18.338
  C       47.493     329.216      19.752
  N       48.559     329.052      18.778
  C       49.231     330.207      18.375
  O       48.832     331.315      18.738
  N       50.327     330.075      17.559
  C       50.603     328.917      17.041
  N       51.737     328.819      16.294
  C       49.763     327.724      17.250
  C       48.795     327.848      18.154
  O       43.012     324.885      22.315
  O       44.212     325.695      20.216
  H       43.267     325.863      20.030
  H       46.006     329.712      17.514
  H       49.960     326.817      16.700
  H       48.137     327.019      18.399
  H       47.443     330.272      20.048
  H       46.239     327.777      18.713
  H       44.535     327.856      20.440
  H       46.351     328.559      22.463
  H       52.310     329.650      16.207
  H       46.457     326.040      20.761
  H       52.196     327.927      16.123
  H       47.350     326.238      22.273
  P       43.500     330.366      20.471
  C       42.165     328.370      21.455
  O       42.506     329.121      20.308
  O       43.864     330.704      18.941
  O       42.958     331.584      21.142
  H       43.256     331.391      18.616
  H       41.541     327.529      21.149
  H       41.600     328.986      22.159
  H       43.064     327.980      21.942
  H       46.078     322.051      22.203
  H       44.601     322.534      23.002
  H       46.078     323.424      23.284

 3  4  5  6  7  8  9  10  11  12  13  24  27  28  29  30  32 0
 6-311+G(2d,p)
 ****
 34  35 0
 6-311+G(2d,p)
 ****
 1  2  14  15  16  17  18  19  20  21  22  23  25  26 0
 3-21G
 ****
 31  33  36  37  38  39  40  41  42  43  44  45  46 0
 3-21G
 ****


