%nproc=1
%NoSave
%Mem=1900MB
#P OB98/GEN NMR

erre ene a

0 1
  C      -16.555     -87.616     141.564
  O      -17.334     -88.755     141.231
  P      -18.932     -88.603     141.252
  C      -18.734     -87.615     143.658
  O      -19.368     -88.545     142.798
  C      -18.288     -88.297     144.956
  O      -17.578     -87.328     145.770
  C      -19.431     -88.858     145.815
  O      -18.922     -90.021     146.478
  C      -19.674     -87.752     146.827
  O      -20.332     -88.222     147.999
  C      -18.245     -87.260     147.050
  N      -16.675     -84.239     150.796
  C      -16.601     -85.616     150.678
  N      -15.963     -86.270     151.676
  N      -17.101     -86.290     149.676
  C      -17.695     -85.498     148.748
  C      -17.867     -84.133     148.770
  C      -17.274     -83.396     149.864
  O      -17.240     -82.174     149.966
  N      -18.596     -83.700     147.695
  C      -18.797     -84.790     146.982
  N      -18.227     -85.899     147.555
  O      -19.436     -90.041     140.771
  O      -19.490     -87.488     140.424
  H      -19.882     -89.045     148.288
  H      -19.594     -90.053     139.805
  H      -16.254     -83.775     151.579
  H      -19.334     -84.840     146.048
  H      -17.689     -87.886     147.760
  H      -20.296     -86.969     146.379
  H      -15.528     -85.812     152.461
  H      -20.327     -89.109     145.237
  H      -15.867     -87.277     151.599
  H      -17.577     -89.090     144.700
  H      -19.448     -86.822     143.911
  H      -17.879     -87.160     143.143
  P      -19.575     -91.441     146.114
  C      -21.650     -91.317     147.665
  O      -20.405     -91.931     147.390
  O      -18.307     -92.422     146.101
  O      -20.295     -91.481     144.805
  H      -18.447     -93.130     145.446
  H      -22.253     -91.994     148.277
  H      -22.200     -91.090     146.742
  H      -21.485     -90.388     148.222
  H      -15.516     -87.866     141.508
  H      -16.792     -87.300     142.558
  H      -16.769     -86.824     140.877

 3  4  5  6  7  8  9  10  11  12  23  26  30  31 0
 6-311+G(2d,p)
 ****
 33  35  36  37  38 0
 6-311+G(2d,p)
 ****
 1  2  13  14  15  16  17  18  19  20  21  22  24  25 0
 3-21G
 ****
 27  28  29  32  34  39  40  41  42  43  44  45  46  47  48  49 0
 3-21G
 ****


