%nproc=1
%NoSave
%Mem=1900MB
#P OB98/GEN NMR

erre ene a

0 1
  C      -32.702     167.942    -157.826
  O      -31.294     168.205    -157.798
  P      -30.531     167.938    -156.411
  C      -30.797     165.361    -156.333
  O      -29.904     166.458    -156.455
  C      -30.423     164.222    -157.291
  O      -30.518     164.658    -158.676
  C      -28.999     163.691    -157.086
  O      -29.011     162.287    -157.379
  C      -28.210     164.408    -158.166
  O      -26.980     163.742    -158.446
  C      -29.237     164.409    -159.298
  N      -28.492     165.207    -164.286
  C      -28.766     164.092    -163.580
  N      -28.928     163.958    -162.245
  C      -28.826     165.150    -161.638
  C      -28.539     166.377    -162.225
  C      -28.367     166.381    -163.619
  N      -28.063     167.516    -164.335
  N      -28.465     167.368    -161.261
  C      -28.695     166.750    -160.120
  N      -28.949     165.418    -160.300
  O      -31.727     167.810    -155.357
  O      -29.577     169.022    -156.027
  H      -27.175     162.790    -158.594
  H      -31.753     168.601    -154.786
  H      -28.861     163.177    -164.165
  H      -28.687     167.214    -159.144
  H      -29.291     163.444    -159.816
  H      -27.980     165.430    -157.844
  H      -28.586     163.861    -156.087
  H      -31.143     163.405    -157.152
  H      -31.824     165.685    -156.545
  H      -27.923     167.427    -165.331
  H      -27.919     168.386    -163.842
  H      -30.803     165.021    -155.290
  P      -29.658     161.332    -156.265
  C      -31.911     160.251    -156.971
  O      -30.497     160.222    -157.059
  O      -30.782     162.247    -155.585
  O      -28.676     160.811    -155.264
  H      -30.955     161.946    -154.672
  H      -32.329     160.028    -157.959
  H      -32.283     161.230    -156.648
  H      -32.241     159.490    -156.265
  H      -33.086     168.159    -158.801
  H      -33.194     168.559    -157.103
  H      -32.877     166.912    -157.595

 3  4  5  6  7  8  9  10  11  12  22  25  29  30  31  32 0
 6-311+G(2d,p)
 ****
 33  36  37 0
 6-311+G(2d,p)
 ****
 1  2  13  14  15  16  17  18  19  20  21  23  24  26 0
 3-21G
 ****
 27  28  34  35  38  39  40  41  42  43  44  45  46  47  48 0
 3-21G
 ****


