%nproc=1
%NoSave
%Mem=1900MB
#P OB98/GEN NMR

erre ene a

0 1
  C      259.091     102.805     437.222
  O      258.612     101.749     438.032
  P      257.872     102.066     439.422
  C      258.382     103.665     441.372
  O      258.932     102.781     440.395
  C      259.488     104.245     442.247
  O      260.520     104.856     441.435
  C      259.023     105.350     443.185
  O      258.264     104.841     444.262
  C      260.357     105.981     443.574
  O      261.001     105.218     444.606
  C      261.146     105.876     442.249
  N      261.216     107.148     441.549
  C      261.968     108.154     442.173
  O      262.453     107.962     443.287
  N      262.135     109.345     441.511
  C      261.512     109.562     440.402
  N      261.766     110.735     439.763
  C      260.576     108.591     439.794
  C      260.499     107.404     440.405
  O      257.137     100.919     440.030
  O      256.870     103.259     439.061
  H      255.976     103.031     439.399
  H      261.891     105.600     444.716
  H      260.030     108.840     438.897
  H      259.857     106.621     440.012
  H      262.159     105.518     442.448
  H      260.232     107.005     443.950
  H      258.421     106.075     442.624
  H      259.942     103.420     442.816
  H      262.420     111.376     440.199
  H      257.680     103.104     441.988
  H      261.601     110.872     438.765
  H      257.831     104.464     440.869
  P      257.110     105.790     444.854
  C      257.124     108.292     445.529
  O      257.827     107.064     445.505
  O      256.564     104.973     446.117
  O      256.009     106.101     443.891
  H      255.601     105.097     446.203
  H      257.576     108.937     446.282
  H      256.067     108.143     445.773
  H      257.212     108.780     444.552
  H      259.550     102.401     436.344
  H      259.810     103.377     437.770
  H      258.275     103.436     436.939

 3  4  5  6  7  8  9  10  11  12  13  24  27  28  29  30  32 0
 6-311+G(2d,p)
 ****
 34  35 0
 6-311+G(2d,p)
 ****
 1  2  14  15  16  17  18  19  20  21  22  23  25  26 0
 3-21G
 ****
 31  33  36  37  38  39  40  41  42  43  44  45  46 0
 3-21G
 ****


