%nproc=1
%NoSave
%Mem=1900MB
#P OB98/GEN NMR

erre ene a

0 1
  C      131.345     115.972     -87.448
  O      131.054     115.553     -86.129
  P      132.038     114.540     -85.377
  C      133.239     112.333     -85.926
  O      132.212     113.245     -86.310
  C      132.757     110.894     -86.095
  O      131.761     110.575     -85.098
  C      132.092     110.615     -87.439
  O      133.060     110.486     -88.462
  C      131.321     109.339     -87.127
  O      132.186     108.193     -87.209
  C      130.884     109.580     -85.672
  N      126.132     108.074     -84.594
  C      127.275     107.381     -84.772
  N      128.499     107.855     -85.097
  C      128.460     109.188     -85.262
  C      127.361     110.023     -85.145
  C      126.149     109.419     -84.768
  N      124.991     110.122     -84.521
  N      127.718     111.331     -85.419
  C      129.005     111.278     -85.703
  N      129.509     110.018     -85.558
  O      131.692     114.250     -83.954
  O      133.467     115.253     -85.479
  H      132.598     108.201     -88.092
  H      133.806     115.431     -84.581
  H      127.203     106.307     -84.629
  H      129.612     112.122     -86.001
  H      130.991     108.675     -85.059
  H      130.490     109.168     -87.816
  H      131.380     111.417     -87.678
  H      133.616     110.224     -85.943
  H      133.492     112.520     -84.880
  H      124.221     109.607     -84.117
  H      125.059     111.123     -84.351
  H      134.127     112.511     -86.542
  P      132.816     111.190     -89.882
  C      131.379     110.740     -91.957
  O      131.805     110.254     -90.699
  O      134.048     111.604     -90.619
  O      131.907     112.459     -89.520
  H      132.104     113.189     -90.138
  H      130.605     111.500     -91.811
  H      130.959     109.911     -92.532
  H      132.216     111.172     -92.514
  H      130.583     116.643     -87.786
  H      131.381     115.119     -88.093
  H      132.291     116.471     -87.463

 3  4  5  6  7  8  9  10  11  12  22  25  29  30  31  32 0
 6-311+G(2d,p)
 ****
 33  36  37 0
 6-311+G(2d,p)
 ****
 1  2  13  14  15  16  17  18  19  20  21  23  24  26 0
 3-21G
 ****
 27  28  34  35  38  39  40  41  42  43  44  45  46  47  48 0
 3-21G
 ****


