%nproc=1
%NoSave
%Mem=1900MB
#P OB98/GEN NMR

erre ene a

0 1
  C      277.597     -31.771     149.247
  O      278.598     -32.301     148.396
  P      278.608     -31.800     146.870
  C      277.236     -33.861     146.065
  O      277.325     -32.445     146.160
  C      276.656     -34.262     144.710
  O      275.325     -33.727     144.564
  C      277.435     -33.745     143.509
  O      278.622     -34.494     143.306
  C      276.389     -33.898     142.411
  O      276.320     -35.268     141.983
  C      275.095     -33.509     143.146
  N      271.391     -30.355     141.549
  C      271.467     -31.704     141.601
  N      272.495     -32.470     142.019
  C      273.525     -31.707     142.419
  C      273.602     -30.325     142.403
  C      272.468     -29.636     141.944
  N      272.397     -28.261     141.887
  N      274.827     -29.897     142.866
  C      275.476     -31.002     143.170
  N      274.726     -32.121     142.930
  O      279.830     -32.605     146.230
  O      278.758     -30.321     146.696
  H      276.094     -35.806     142.768
  H      280.282     -32.071     145.548
  H      270.583     -32.238     141.264
  H      276.480     -31.042     143.567
  H      274.241     -34.128     142.851
  H      276.600     -33.288     141.527
  H      277.685     -32.685     143.643
  H      276.591     -35.357     144.680
  H      276.582     -34.240     146.856
  H      271.608     -27.854     141.409
  H      273.247     -27.735     142.049
  H      278.233     -34.289     146.206
  P      279.864     -33.737     142.628
  C      280.027     -34.961     140.376
  O      279.546     -33.815     141.055
  O      281.033     -34.812     142.803
  O      280.141     -32.378     143.169
  H      280.758     -35.701     142.518
  H      279.699     -34.912     139.334
  H      279.627     -35.871     140.834
  H      281.120     -34.979     140.400
  H      277.706     -32.186     150.227
  H      276.631     -32.019     148.859
  H      277.698     -30.707     149.297

 3  4  5  6  7  8  9  10  11  12  22  25  29  30  31  32 0
 6-311+G(2d,p)
 ****
 33  36  37 0
 6-311+G(2d,p)
 ****
 1  2  13  14  15  16  17  18  19  20  21  23  24  26 0
 3-21G
 ****
 27  28  34  35  38  39  40  41  42  43  44  45  46  47  48 0
 3-21G
 ****


