%nproc=1
%NoSave
%Mem=1900MB
#P OB98/GEN NMR

erre ene a

0 1
  C       -3.557      78.194       9.328
  O       -2.423      77.369       9.468
  H       -4.045      78.283      10.305
  H       -4.270      77.749       8.631
  H       -3.270      79.193       8.989
  P       -1.536      77.029       8.173
  C       -2.556      74.674       8.114
  O       -2.351      75.880       7.390
  C       -3.835      73.969       7.656
  O       -3.770      73.730       6.223
  C       -4.073      72.615       8.341
  O       -5.429      72.530       8.786
  C       -3.838      71.606       7.227
  O       -4.510      70.368       7.446
  C       -4.298      72.410       6.007
  N       -3.835      71.821       4.756
  C       -4.517      70.679       4.324
  O       -5.454      70.225       4.984
  N       -4.086      70.046       3.187
  C       -3.039      70.488       2.564
  N       -2.649      69.793       1.458
  C       -2.274      71.670       3.001
  C       -2.725      72.288       4.093
  O       -0.108      76.704       8.464
  O       -1.707      78.298       7.214
  H       -5.476      70.542       7.492
  H       -0.945      78.331       6.589
  H       -1.405      71.992       2.445
  H       -2.228      73.166       4.491
  H       -5.394      72.480       5.977
  H       -2.763      71.396       7.150
  H       -3.411      72.439       9.187
  H       -4.682      74.649       7.813
  H       -3.200      68.981       1.197
  H       -2.612      74.912       9.182
  H       -1.839      70.026       0.908
  H       -1.701      74.014       7.935
  P       -5.670      72.693      10.364
  C       -5.891      70.195      11.036
  O       -5.106      71.379      11.088
  O       -7.259      72.566      10.510
  O       -5.171      73.990      10.911
  H       -7.639      73.432      10.751
  H       -5.387      69.410      11.560
  H       -6.036      69.908      10.016
  H       -6.841      70.377      11.494

 6  7  8  9  10  11  12  13  14  15  16  26  30  31  32  33  35 0
 6-311+G(2d,p)
 ****
 37  38 0
 6-311+G(2d,p)
 ****
 1  2  3  4  5  17  18  19  20  21  22  23  24  25 0
 3-21G
 ****
 27  28  29  34  36  39  40  41  42  43  44  45  46 0
 3-21G
 ****


