%nproc=1
%NoSave
%Mem=1900MB
#P OB98/GEN NMR

erre ene a

0 1
  C      553.628    -204.521    -816.734
  O      552.717    -204.151    -815.717
  H      554.086    -203.615    -817.138
  H      553.099    -205.036    -817.543
  H      554.416    -205.166    -816.333
  P      552.060    -205.355    -814.869
  C      550.809    -206.502    -816.875
  O      551.847    -206.556    -815.911
  C      550.631    -207.861    -817.551
  O      551.872    -208.213    -818.221
  C      550.283    -208.997    -816.579
  O      549.390    -209.903    -817.231
  C      551.628    -209.686    -816.356
  O      551.461    -211.039    -815.921
  C      552.281    -209.510    -817.731
  N      553.737    -209.617    -817.668
  C      554.262    -210.868    -817.330
  O      553.505    -211.820    -817.079
  N      555.628    -211.020    -817.223
  C      556.399    -209.983    -817.385
  N      557.739    -210.200    -817.247
  C      555.893    -208.649    -817.705
  C      554.567    -208.534    -817.837
  O      550.580    -204.796    -814.615
  O      552.810    -205.713    -813.626
  H      552.344    -211.400    -815.695
  H      550.173    -204.406    -815.409
  H      556.574    -207.807    -817.815
  H      554.105    -207.573    -818.074
  H      551.914    -210.271    -818.431
  H      552.192    -209.148    -815.584
  H      549.827    -208.639    -815.656
  H      549.862    -207.771    -818.332
  H      558.035    -211.131    -817.000
  H      551.031    -205.744    -817.635
  H      558.434    -209.465    -817.298
  H      549.889    -206.209    -816.362
  P      547.862    -209.985    -816.762
  C      548.079    -211.789    -814.909
  O      547.797    -210.427    -815.217
  O      546.943    -210.729    -817.668
  O      547.438    -208.426    -816.693
  H      546.532    -208.354    -817.053
  H      547.999    -211.940    -813.853
  H      549.071    -212.029    -815.230
  H      547.378    -212.421    -815.413

 6  7  8  9  10  11  12  13  14  15  16  26  30  31  32  33  35 0
 6-311+G(2d,p)
 ****
 37  38 0
 6-311+G(2d,p)
 ****
 1  2  3  4  5  17  18  19  20  21  22  23  24  25 0
 3-21G
 ****
 27  28  29  34  36  39  40  41  42  43  44  45  46 0
 3-21G
 ****


