%nproc=1
%NoSave
%Mem=1900MB
#P OB98/GEN NMR

erre ene a

0 1
  C      208.968    -262.056     -43.927
  O      210.034    -262.505     -43.117
  H      209.175    -261.034     -44.241
  H      208.042    -262.065     -43.349
  H      208.861    -262.685     -44.819
  P      210.104    -264.084     -42.819
  C      210.375    -263.742     -40.256
  O      210.940    -264.253     -41.460
  C      211.056    -264.360     -39.043
  O      211.091    -265.801     -39.164
  C      212.504    -263.915     -38.838
  O      212.576    -262.669     -38.156
  C      213.029    -265.048     -37.972
  O      212.567    -264.869     -36.615
  C      212.348    -266.274     -38.599
  N      212.291    -269.791     -42.260
  C      211.312    -269.453     -41.337
  N      210.163    -270.154     -41.396
  N      211.459    -268.515     -40.437
  C      212.673    -267.909     -40.485
  C      213.716    -268.161     -41.341
  C      213.540    -269.188     -42.339
  O      214.367    -269.523     -43.186
  N      214.788    -267.347     -41.079
  C      214.399    -266.620     -40.050
  N      213.119    -266.923     -39.645
  O      211.103    -264.616     -43.953
  O      208.795    -264.794     -42.876
  H      213.102    -264.155     -36.223
  H      210.587    -265.041     -44.661
  H      212.135    -270.527     -42.925
  H      214.999    -265.864     -39.571
  H      212.110    -267.042     -37.860
  H      214.123    -265.081     -37.930
  H      209.996    -270.905     -42.044
  H      213.062    -263.888     -39.787
  H      209.432    -269.920     -40.735
  H      210.451    -264.123     -38.158
  H      209.305    -263.983     -40.240
  H      210.498    -262.654     -40.239
  P      212.998    -261.370     -38.991
  C      214.826    -260.485     -37.378
  O      213.535    -260.288     -37.933
  O      211.592    -260.776     -39.458
  O      213.897    -261.622     -40.154
  H      211.492    -260.861     -40.430
  H      215.046    -259.691     -36.695
  H      215.554    -260.493     -38.162
  H      214.852    -261.420     -36.858

 6  7  8  9  10  11  12  13  14  15  26  29  33  34 0
 6-311+G(2d,p)
 ****
 36  38  39  40  41 0
 6-311+G(2d,p)
 ****
 1  2  3  4  5  16  17  18  19  20  21  22  23  24  25 0
 3-21G
 ****
 27  28  30  31  32  35  37  42  43  44  45  46  47 0
 3-21G
 ****
 48  49 0
 3-21G
 ****


