%nproc=1
%NoSave
%Mem=1900MB
#P OB98/GEN NMR

erre ene a

0 1
  C     -191.171    -253.827     330.987
  O     -190.223    -254.295     330.043
  P     -190.449    -255.738     329.385
  C     -191.436    -254.665     327.229
  O     -191.616    -255.593     328.291
  C     -191.513    -255.385     325.879
  O     -190.325    -256.219     325.707
  C     -192.738    -256.295     325.724
  O     -193.132    -256.257     324.344
  C     -192.173    -257.666     326.053
  O     -192.970    -258.733     325.563
  C     -190.789    -257.547     325.404
  N     -189.853    -258.569     325.877
  C     -189.947    -259.832     325.307
  O     -190.767    -260.140     324.440
  N     -189.100    -260.780     325.815
  C     -188.250    -260.619     326.871
  O     -187.603    -261.538     327.353
  C     -188.191    -259.257     327.434
  C     -188.984    -258.312     326.918
  O     -191.136    -256.577     330.562
  O     -189.206    -256.394     328.883
  H     -192.484    -259.558     325.717
  H     -190.476    -257.145     331.003
  H     -189.144    -261.704     325.406
  H     -187.515    -259.084     328.260
  H     -188.972    -257.309     327.330
  H     -190.879    -257.616     324.316
  H     -192.096    -257.774     327.143
  H     -193.579    -256.018     326.367
  H     -191.492    -254.630     325.082
  H     -190.459    -254.191     327.327
  H     -192.199    -253.884     327.295
  P     -194.643    -255.831     324.002
  C     -194.344    -253.263     323.630
  O     -194.803    -254.306     324.460
  O     -195.443    -256.659     325.118
  O     -195.058    -256.158     322.606
  H     -195.020    -256.623     325.993
  H     -194.462    -253.506     322.572
  H     -193.290    -253.073     323.842
  H     -194.914    -252.356     323.851
  H     -190.882    -252.856     331.332
  H     -191.212    -254.502     331.816
  H     -192.135    -253.769     330.526

 3  4  5  6  7  8  9  10  11  12  13  23  28  29  30  31  32 0
 6-311+G(2d,p)
 ****
 33  34 0
 6-311+G(2d,p)
 ****
 1  2  14  15  16  17  18  19  20  21  22  24  25  26 0
 3-21G
 ****
 27  35  36  37  38  39  40  41  42  43  44  45 0
 3-21G
 ****


