%nproc=1
%NoSave
%Mem=1900MB
#P OB98/GEN NMR

erre ene a

0 1
  C      325.044       7.374     491.030
  O      326.317       8.003     491.206
  P      327.514       7.049     491.705
  C      327.870       6.028     489.345
  O      327.590       5.788     490.712
  C      328.991       5.117     488.847
  O      328.590       3.733     488.810
  C      329.465       5.454     487.442
  O      330.349       6.559     487.478
  C      330.148       4.155     487.030
  O      331.506       4.099     487.512
  C      329.289       3.085     487.716
  N      327.142      -1.360     486.537
  C      328.204      -1.079     487.386
  N      328.748      -2.132     488.025
  N      328.676       0.120     487.587
  C      328.030       1.075     486.876
  C      326.955       0.927     486.026
  C      326.444      -0.405     485.816
  O      325.497      -0.699     485.092
  N      326.532       2.140     485.536
  C      327.431       2.994     485.989
  N      328.325       2.417     486.859
  O      326.948       6.433     493.076
  O      328.798       7.774     491.920
  H      331.913       3.260     487.217
  H      327.439       6.806     493.830
  H      326.824      -2.305     486.420
  H      327.466       4.047     485.742
  H      329.906       2.288     488.153
  H      330.211       4.057     485.940
  H      328.429      -3.089     487.929
  H      328.609       5.651     486.791
  H      329.516      -1.949     488.665
  H      329.821       5.206     489.559
  H      328.156       7.077     489.202
  H      326.946       5.876     488.764
  P      330.674       7.305     486.098
  C      328.656       8.939     486.177
  O      329.296       7.862     485.515
  O      331.054       6.097     485.110
  O      331.784       8.300     486.176
  H      331.843       6.331     484.593
  H      328.091       9.524     485.445
  H      329.381       9.598     486.667
  H      327.970       8.541     486.924
  H      324.331       8.099     490.699
  H      324.721       6.955     491.960
  H      325.128       6.597     490.299

 3  4  5  6  7  8  9  10  11  12  23  26  30  31 0
 6-311+G(2d,p)
 ****
 33  35  36  37  38 0
 6-311+G(2d,p)
 ****
 1  2  13  14  15  16  17  18  19  20  21  22  24  25 0
 3-21G
 ****
 27  28  29  32  34  39  40  41  42  43  44  45  46  47  48  49 0
 3-21G
 ****


