%nproc=1
%NoSave
%Mem=1900MB
#P OB98/GEN NMR

erre ene a

0 1
  C     -452.027    -894.294    -137.612
  O     -452.784    -895.429    -137.264
  H     -451.327    -894.569    -138.402
  H     -451.459    -893.944    -136.748
  H     -452.671    -893.488    -137.982
  P     -454.081    -895.250    -136.338
  C     -452.880    -896.062    -134.204
  O     -453.538    -894.984    -134.845
  C     -452.924    -895.897    -132.682
  O     -454.213    -896.369    -132.192
  C     -451.828    -896.682    -131.933
  O     -451.503    -895.948    -130.754
  C     -452.566    -897.962    -131.575
  O     -451.898    -898.667    -130.547
  C     -453.951    -897.411    -131.232
  N     -454.985    -898.447    -131.232
  C     -455.078    -899.237    -130.093
  O     -454.322    -899.118    -129.126
  N     -456.030    -900.210    -130.111
  C     -456.864    -900.490    -131.160
  O     -457.682    -901.401    -131.132
  C     -456.687    -899.653    -132.361
  C     -455.774    -898.667    -132.334
  O     -455.108    -896.324    -136.447
  O     -454.666    -893.818    -136.760
  H     -452.312    -899.546    -130.404
  H     -455.634    -893.805    -136.645
  H     -456.123    -900.784    -129.289
  H     -457.316    -899.865    -133.210
  H     -455.626    -898.042    -133.198
  H     -453.944    -896.945    -130.229
  H     -452.630    -898.627    -132.444
  H     -450.937    -896.856    -132.535
  H     -452.876    -894.822    -132.446
  H     -451.836    -896.077    -134.545
  H     -453.365    -897.010    -134.490
  P     -450.196    -895.024    -130.652
  C     -448.762    -896.552    -129.150
  O     -448.913    -895.969    -130.442
  O     -450.306    -893.904    -129.664
  O     -449.998    -894.445    -132.139
  H     -449.537    -893.578    -132.095
  H     -447.879    -897.156    -129.132
  H     -449.614    -897.161    -128.932
  H     -448.680    -895.777    -128.417

 6  7  8  9  10  11  12  13  14  15  16  26  31  32  33  34  35 0
 6-311+G(2d,p)
 ****
 36  37 0
 6-311+G(2d,p)
 ****
 1  2  3  4  5  17  18  19  20  21  22  23  24  25 0
 3-21G
 ****
 27  28  29  30  38  39  40  41  42  43  44  45 0
 3-21G
 ****


