%nproc=1
%NoSave
%Mem=1900MB
#P OB98/GEN NMR

erre ene a

0 1
  C     -491.937    -668.725     -80.548
  O     -492.645    -669.638     -79.737
  H     -491.849    -667.775     -80.017
  H     -492.491    -668.555     -81.477
  H     -490.935    -669.098     -80.777
  P     -492.628    -671.177     -80.183
  C     -492.728    -671.974     -77.719
  O     -493.326    -672.019     -79.005
  C     -493.047    -670.654     -77.025
  O     -494.482    -670.545     -76.856
  C     -492.402    -670.501     -75.642
  O     -491.983    -669.147     -75.467
  C     -493.547    -670.806     -74.687
  O     -493.368    -670.202     -73.406
  C     -494.742    -670.272     -75.470
  N     -498.065    -670.542     -71.690
  C     -496.957    -669.736     -71.846
  N     -496.692    -668.871     -70.846
  N     -496.182    -669.771     -72.898
  C     -496.590    -670.658     -73.837
  C     -497.663    -671.522     -73.800
  C     -498.501    -671.492     -72.618
  O     -499.480    -672.196     -72.409
  N     -497.725    -672.290     -74.932
  C     -496.691    -671.893     -75.659
  N     -495.977    -670.900     -75.038
  O     -491.081    -671.575     -80.062
  O     -493.154    -671.454     -81.551
  H     -492.530    -670.552     -73.036
  H     -490.727    -671.797     -80.943
  H     -498.624    -670.491     -70.855
  H     -496.414    -672.288     -76.620
  H     -494.868    -669.193     -75.346
  H     -493.625    -671.894     -74.539
  H     -497.269    -668.757     -70.036
  H     -491.555    -671.171     -75.488
  H     -495.906    -668.240     -70.958
  H     -492.745    -669.829     -77.687
  H     -491.642    -672.072     -77.828
  H     -493.103    -672.809     -77.113
  P     -490.414    -668.850     -75.643
  C     -490.767    -666.486     -76.646
  O     -490.198    -667.256     -75.596
  O     -490.145    -669.223     -77.178
  O     -489.538    -669.641     -74.729
  H     -489.631    -670.055     -77.231
  H     -490.547    -665.451     -76.489
  H     -491.828    -666.628     -76.658
  H     -490.355    -666.800     -77.582

 6  7  8  9  10  11  12  13  14  15  26  29  33  34 0
 6-311+G(2d,p)
 ****
 36  38  39  40  41 0
 6-311+G(2d,p)
 ****
 1  2  3  4  5  16  17  18  19  20  21  22  23  24  25 0
 3-21G
 ****
 27  28  30  31  32  35  37  42  43  44  45  46  47 0
 3-21G
 ****
 48  49 0
 3-21G
 ****


