%nproc=1
%NoSave
%Mem=1900MB
#P OB98/GEN NMR

erre ene a

0 1
  C      104.499     166.178     170.637
  O      103.389     166.748     171.342
  P      102.695     168.117     170.876
  C      101.674     168.073     173.242
  O      101.488     168.451     171.881
  C      100.379     168.212     174.051
  O      100.002     169.598     174.177
  C       99.175     167.501     173.443
  O       99.228     166.113     173.710
  C       98.022     168.241     174.115
  O       97.796     167.726     175.438
  C       98.564     169.676     174.183
  N       97.442     174.468     172.794
  C       97.920     173.951     173.947
  N       98.188     172.661     174.242
  C       97.939     171.872     173.183
  C       97.445     172.256     171.944
  C       97.191     173.625     171.764
  N       96.690     174.149     170.595
  N       97.292     171.163     171.120
  C       97.705     170.139     171.838
  N       98.102     170.514     173.093
  O      102.316     168.153     169.433
  O      103.775     169.253     171.205
  H       97.118     168.286     175.856
  H      103.658     170.005     170.595
  H       98.112     174.669     174.741
  H       97.735     169.112     171.498
  H       98.281     170.171     175.120
  H       97.082     168.150     173.563
  H       99.139     167.680     172.362
  H      100.574     167.834     175.063
  H      102.449     168.715     173.676
  H       96.504     175.139     170.557
  H       96.456     173.523     169.839
  H      102.021     167.034     173.271
  P       99.623     165.085     172.544
  C       98.535     163.389     174.133
  O       99.551     163.611     173.172
  O      100.881     165.402     171.806
  O       98.355     165.114     171.567
  H       98.644     164.925     170.657
  H       98.860     163.785     175.100
  H       98.372     162.312     174.226
  H       97.599     163.869     173.833
  H      104.800     165.271     171.119
  H      105.315     166.870     170.637
  H      104.211     165.967     169.628

 3  4  5  6  7  8  9  10  11  12  22  25  29  30  31  32 0
 6-311+G(2d,p)
 ****
 33  36  37 0
 6-311+G(2d,p)
 ****
 1  2  13  14  15  16  17  18  19  20  21  23  24  26 0
 3-21G
 ****
 27  28  34  35  38  39  40  41  42  43  44  45  46  47  48 0
 3-21G
 ****


