%nproc=1
%NoSave
%Mem=1900MB
#P OB98/GEN NMR

erre ene a

0 1
  C     1387.261    -337.700     535.573
  O     1385.950    -337.421     536.012
  H     1387.890    -336.818     535.650
  H     1387.687    -338.498     536.199
  H     1387.236    -338.048     534.534
  P     1385.161    -336.250     535.251
  C     1386.031    -334.342     536.772
  O     1384.910    -335.073     536.318
  C     1385.583    -333.017     537.385
  O     1384.997    -332.202     536.337
  C     1384.535    -333.162     538.507
  O     1385.030    -332.549     539.705
  C     1383.335    -332.346     538.031
  O     1382.713    -331.593     539.059
  C     1383.931    -331.460     536.923
  N     1379.613    -328.855     536.225
  C     1380.577    -328.737     537.160
  N     1381.758    -329.388     537.240
  C     1381.910    -330.228     536.180
  C     1381.019    -330.405     535.134
  C     1379.820    -329.699     535.174
  N     1378.816    -329.848     534.245
  N     1381.528    -331.350     534.238
  C     1382.671    -331.727     534.766
  N     1382.930    -331.093     535.944
  O     1383.703    -336.875     535.020
  O     1385.782    -335.810     533.957
  H     1383.412    -331.014     539.434
  H     1383.437    -336.746     534.098
  H     1380.365    -328.046     537.968
  H     1383.327    -332.490     534.369
  H     1384.359    -330.525     537.356
  H     1382.593    -333.046     537.590
  H     1384.253    -334.200     538.707
  H     1386.458    -332.478     537.752
  H     1386.698    -334.130     535.925
  H     1377.937    -329.384     534.437
  H     1378.919    -330.560     533.545
  H     1386.578    -334.948     537.516
  P     1386.186    -333.351     540.486
  C     1384.700    -334.133     542.482
  O     1385.815    -333.350     542.045
  O     1387.443    -332.335     540.430
  O     1386.510    -334.676     539.898
  H     1388.271    -332.818     540.462
  H     1384.583    -334.028     543.540
  H     1384.871    -335.162     542.243
  H     1383.812    -333.795     541.990

 6  7  8  9  10  11  12  13  14  15  25  28  32  33  34  35 0
 6-311+G(2d,p)
 ****
 36  39  40 0
 6-311+G(2d,p)
 ****
 1  2  3  4  5  16  17  18  19  20  21  22  23  24 0
 3-21G
 ****
 26  27  29  30  31  37  38  41  42  43  44  45  46  47  48 0
 3-21G
 ****


