%nproc=1
%NoSave
%Mem=1900MB
#P OB98/GEN NMR

erre ene a

0 1
  C       39.929     295.925     384.032
  O       41.060     295.098     384.200
  H       39.029     295.326     384.197
  H       39.905     296.318     383.012
  H       39.933     296.753     384.748
  P       42.509     295.776     384.303
  C       44.819     295.013     385.161
  O       43.530     294.609     384.722
  C       45.425     293.962     386.102
  O       44.603     293.876     387.300
  C       45.509     292.555     385.494
  O       46.653     291.909     386.071
  C       44.231     291.922     386.005
  O       44.277     290.518     385.911
  C       44.171     292.503     387.423
  N       42.841     292.397     388.018
  C       42.703     291.500     389.073
  O       43.629     290.798     389.485
  N       41.453     291.399     389.614
  C       40.336     292.051     389.176
  O       39.234     291.896     389.682
  C       40.534     292.948     388.029
  C       41.757     293.084     387.509
  O       42.589     297.008     385.142
  O       42.921     296.063     382.780
  H       43.394     290.132     386.106
  H       43.500     296.850     382.731
  H       41.341     290.763     390.392
  H       39.663     293.472     387.646
  H       41.929     293.736     386.661
  H       44.881     291.987     388.087
  H       43.373     292.259     385.418
  H       45.582     292.559     384.404
  H       46.417     294.316     386.424
  H       44.711     295.965     385.693
  H       45.470     295.158     384.294
  P       48.068     291.841     385.312
  C       50.537     291.767     386.063
  O       49.194     291.376     386.358
  O       48.416     293.082     384.553
  O       47.943     290.592     384.323
  H       48.522     290.726     383.542
  H       51.191     291.401     386.827
  H       50.597     292.835     386.023
  H       50.828     291.358     385.118

 6  7  8  9  10  11  12  13  14  15  16  26  31  32  33  34  35 0
 6-311+G(2d,p)
 ****
 36  37 0
 6-311+G(2d,p)
 ****
 1  2  3  4  5  17  18  19  20  21  22  23  24  25 0
 3-21G
 ****
 27  28  29  30  38  39  40  41  42  43  44  45 0
 3-21G
 ****


