%nproc=1
%NoSave
%Mem=1900MB
#P OB98/GEN NMR

erre ene a

0 1
  C       61.462     149.213     105.388
  O       62.449     148.978     106.390
  P       62.595     150.039     107.583
  C       62.173     148.252     109.397
  O       61.767     149.502     108.848
  C       62.203     148.319     110.933
  O       63.342     149.120     111.346
  C       60.977     148.981     111.574
  O       59.859     148.158     111.898
  C       61.561     149.463     112.900
  O       61.563     148.385     113.854
  C       62.997     149.840     112.549
  N       63.478     154.366     114.881
  C       63.319     153.114     115.364
  N       63.197     151.962     114.674
  C       63.268     152.187     113.353
  C       63.432     153.407     112.717
  C       63.537     154.538     113.541
  N       63.688     155.815     113.052
  N       63.450     153.244     111.349
  C       63.281     151.950     111.162
  N       63.181     151.266     112.341
  O       62.356     151.467     107.219
  O       64.111     149.821     108.055
  H       62.257     147.762     113.568
  H       64.496     150.685     108.297
  H       63.281     153.026     116.447
  H       63.228     151.468     110.196
  H       63.709     149.536     113.324
  H       60.972     150.272     113.344
  H       60.642     149.839     110.982
  H       62.335     147.307     111.333
  H       63.166     147.993     109.021
  H       63.710     156.577     113.711
  H       63.675     155.969     112.054
  H       61.486     147.492     109.023
  P       58.374     148.559     111.457
  C       58.311     146.717     109.600
  O       58.234     148.086     109.932
  O       58.003     149.981     111.700
  O       57.477     147.494     112.246
  H       57.574     146.580     111.935
  H       57.981     146.587     108.567
  H       57.667     146.122     110.252
  H       59.345     146.374     109.686
  H       61.489     148.422     104.668
  H       61.662     150.145     104.902
  H       60.494     149.248     105.842

 3  4  5  6  7  8  9  10  11  12  22  25  29  30  31  32 0
 6-311+G(2d,p)
 ****
 33  36  37 0
 6-311+G(2d,p)
 ****
 1  2  13  14  15  16  17  18  19  20  21  23  24  26 0
 3-21G
 ****
 27  28  34  35  38  39  40  41  42  43  44  45  46  47  48 0
 3-21G
 ****


