%nproc=1
%NoSave
%Mem=1900MB
#P OB98/GEN NMR

erre ene a

0 1
  C      -41.579     -88.104     110.156
  O      -41.750     -86.695     109.967
  P      -42.888     -85.869     110.742
  C      -41.538     -83.735     111.210
  O      -42.670     -84.288     110.545
  C      -40.256     -83.790     110.368
  O      -40.451     -83.144     109.080
  C      -39.031     -83.126     111.011
  O      -37.895     -83.858     110.544
  C      -39.061     -81.737     110.396
  O      -37.821     -81.052     110.481
  C      -39.495     -82.073     108.972
  N      -41.898     -80.547     104.716
  C      -41.627     -81.778     105.202
  N      -41.018     -82.104     106.358
  C      -40.711     -81.004     107.066
  C      -40.933     -79.686     106.705
  C      -41.548     -79.470     105.458
  N      -41.784     -78.219     104.936
  N      -40.454     -78.824     107.672
  C      -39.941     -79.613     108.595
  N      -40.075     -80.940     108.278
  O      -43.080     -86.281     112.166
  O      -44.224     -86.162     109.907
  H      -37.137     -81.605     110.063
  H      -44.948     -86.373     110.527
  H      -41.935     -82.611     104.575
  H      -39.445     -79.280     109.498
  H      -38.651     -82.438     108.374
  H      -39.813     -81.130     110.916
  H      -39.066     -83.111     112.103
  H      -40.047     -84.846     110.158
  H      -41.382     -84.287     112.144
  H      -42.142     -78.168     103.996
  H      -41.416     -77.410     105.413
  H      -41.761     -82.694     111.471
  P      -36.889     -84.586     111.554
  C      -35.925     -86.819     110.760
  O      -35.851     -85.409     110.657
  O      -37.549     -85.380     112.634
  O      -35.997     -83.401     112.160
  H      -35.576     -83.701     112.987
  H      -35.461     -87.144     111.696
  H      -35.388     -87.266     109.921
  H      -36.966     -87.158     110.734
  H      -40.770     -88.450     109.547
  H      -42.478     -88.613     109.877
  H      -41.362     -88.302     111.185

 3  4  5  6  7  8  9  10  11  12  22  25  29  30  31  32 0
 6-311+G(2d,p)
 ****
 33  36  37 0
 6-311+G(2d,p)
 ****
 1  2  13  14  15  16  17  18  19  20  21  23  24  26 0
 3-21G
 ****
 27  28  34  35  38  39  40  41  42  43  44  45  46  47  48 0
 3-21G
 ****


