%nproc=1
%NoSave
%Mem=1900MB
#P OB98/GEN NMR

erre ene a

0 1
  C      -39.977     436.456    -247.351
  O      -40.492     435.663    -248.402
  H      -40.223     436.008    -246.384
  H      -38.886     436.499    -247.450
  H      -40.377     437.471    -247.410
  P      -42.086     435.474    -248.450
  C      -42.861     432.997    -248.294
  O      -42.397     434.149    -247.599
  C      -41.667     432.192    -248.802
  O      -40.601     432.211    -247.827
  C      -41.968     430.717    -249.049
  O      -42.597     430.501    -250.303
  C      -40.564     430.137    -249.036
  O      -39.906     430.426    -250.283
  C      -39.913     430.934    -247.897
  N      -38.101     427.113    -244.998
  C      -37.821     427.497    -246.263
  N      -38.346     428.525    -246.963
  C      -39.259     429.182    -246.226
  C      -39.655     428.896    -244.936
  C      -39.030     427.812    -244.296
  N      -39.324     427.404    -243.020
  N      -40.646     429.776    -244.522
  C      -40.814     430.586    -245.540
  N      -40.009     430.265    -246.600
  O      -42.365     435.013    -249.961
  O      -42.894     436.671    -248.058
  H      -40.167     429.720    -250.907
  H      -43.301     435.180    -250.193
  H      -37.068     426.905    -246.779
  H      -41.506     431.425    -245.564
  H      -38.849     431.138    -248.076
  H      -40.547     429.053    -248.909
  H      -42.546     430.273    -248.230
  H      -41.295     432.672    -249.716
  H      -43.471     433.314    -249.147
  H      -38.958     426.505    -242.730
  H      -40.117     427.820    -242.552
  H      -43.471     432.386    -247.614
  P      -43.432     429.138    -250.485
  C      -42.451     427.235    -251.961
  O      -42.341     427.994    -250.765
  O      -44.140     429.332    -251.905
  O      -44.408     428.851    -249.390
  H      -44.965     428.808    -251.957
  H      -41.657     426.518    -252.003
  H      -42.386     427.889    -252.806
  H      -43.392     426.726    -251.975

 6  7  8  9  10  11  12  13  14  15  25  28  32  33  34  35 0
 6-311+G(2d,p)
 ****
 36  39  40 0
 6-311+G(2d,p)
 ****
 1  2  3  4  5  16  17  18  19  20  21  22  23  24 0
 3-21G
 ****
 26  27  29  30  31  37  38  41  42  43  44  45  46  47 0
 3-21G
 ****
 48 0
 3-21G
 ****


