%nproc=1
%NoSave
%Mem=1900MB
#P OB98/GEN NMR

erre ene a

0 1
  C      755.849    -629.319    1014.144
  O      754.728    -629.831    1014.851
  P      753.763    -628.759    1015.569
  C      754.483    -629.626    1017.943
  O      754.376    -628.527    1017.027
  C      754.632    -629.103    1019.362
  O      755.853    -628.306    1019.484
  C      753.515    -628.178    1019.825
  O      752.336    -628.901    1020.107
  C      754.167    -627.497    1021.025
  O      754.091    -628.358    1022.174
  C      755.638    -627.355    1020.556
  N      755.978    -626.011    1020.138
  C      756.229    -625.104    1021.176
  O      756.142    -625.393    1022.358
  N      756.535    -623.817    1020.790
  C      756.620    -623.375    1019.497
  O      756.914    -622.218    1019.219
  C      756.302    -624.350    1018.449
  C      755.997    -625.616    1018.800
  O      752.437    -629.660    1015.824
  O      753.536    -627.536    1014.739
  H      752.663    -630.581    1016.037
  H      754.829    -628.113    1022.762
  H      756.750    -623.169    1021.513
  H      756.308    -624.024    1017.429
  H      755.746    -626.350    1018.050
  H      756.312    -627.653    1021.365
  H      753.677    -626.550    1021.292
  H      753.320    -627.423    1019.037
  H      754.715    -629.959    1020.056
  H      755.344    -630.235    1017.693
  H      753.584    -630.245    1017.852
  P      751.190    -628.904    1018.991
  C      749.431    -627.362    1020.193
  O      750.377    -627.527    1019.143
  O      750.181    -630.014    1019.568
  O      751.694    -629.180    1017.599
  H      750.016    -629.925    1020.512
  H      749.254    -626.317    1020.340
  H      749.767    -627.819    1021.125
  H      748.476    -627.830    1019.894
  H      756.403    -630.130    1013.718
  H      756.477    -628.773    1014.817
  H      755.512    -628.668    1013.364

 3  4  5  6  7  8  9  10  11  12  13  24  28  29  30  31  32 0
 6-311+G(2d,p)
 ****
 33  34 0
 6-311+G(2d,p)
 ****
 1  2  14  15  16  17  18  19  20  21  22  23  25  26  27 0
 3-21G
 ****
 35  36  37  38  39  40  41  42  43  44  45 0
 3-21G
 ****


