%nproc=1
%NoSave
%Mem=1900MB
#P OB98/GEN NMR

erre ene a

0 1
  C     -894.980     553.315    -109.558
  O     -895.940     552.407    -110.068
  H     -894.670     553.984    -110.366
  H     -894.100     552.770    -109.201
  H     -895.400     553.914    -108.746
  P     -896.640     551.371    -109.059
  C     -894.860     549.621    -109.688
  O     -896.250     549.899    -109.574
  C     -894.630     548.130    -109.917
  O     -895.040     547.400    -108.729
  C     -895.410     547.559    -111.105
  O     -894.590     546.584    -111.767
  C     -896.590     546.872    -110.460
  O     -897.110     545.806    -111.254
  C     -896.000     546.405    -109.135
  N     -898.450     542.984    -106.330
  C     -897.400     542.828    -107.204
  N     -896.940     541.569    -107.384
  N     -896.840     543.818    -107.850
  C     -897.390     545.028    -107.569
  C     -898.440     545.306    -106.720
  C     -899.050     544.203    -106.018
  O     -900.000     544.287    -105.235
  N     -898.720     546.657    -106.719
  C     -897.850     547.179    -107.565
  N     -897.020     546.228    -108.111
  O     -898.100     551.578    -108.837
  O     -895.800     551.524    -107.704
  H     -897.660     545.243    -110.665
  H     -896.280     552.088    -107.067
  H     -898.850     542.184    -105.863
  H     -897.770     548.228    -107.819
  H     -895.480     545.437    -109.222
  H     -897.400     547.602    -110.287
  H     -897.310     540.760    -106.915
  H     -895.720     548.326    -111.821
  H     -896.150     541.429    -108.010
  H     -893.550     547.953    -110.035
  H     -894.360     549.931    -108.757
  H     -894.440     550.201    -110.523
  P     -893.390     547.094    -112.701
  C     -895.200     547.295    -114.535
  O     -893.850     546.934    -114.237
  O     -892.040     546.532    -112.380
  O     -893.420     548.681    -112.492
  H     -892.510     549.030    -112.600
  H     -895.387     547.147    -115.578
  H     -895.357     548.324    -114.287
  H     -895.867     546.684    -113.963

 6  7  8  9  10  11  12  13  14  15  26  29  33  34 0
 6-311+G(2d,p)
 ****
 36  38  39  40  41 0
 6-311+G(2d,p)
 ****
 1  2  3  4  5  16  17  18  19  20  21  22  23  24  25 0
 3-21G
 ****
 27  28  30  31  32  35  37  42  43  44  45  46  47 0
 3-21G
 ****
 48  49 0
 3-21G
 ****


