%nproc=1
%NoSave
%Mem=1900MB
#P OB98/GEN NMR

erre ene a

0 1
  C      308.713    -206.280     471.843
  O      307.790    -206.664     470.818
  P      306.422    -207.336     471.296
  C      304.107    -207.880     470.238
  O      305.451    -207.487     470.021
  C      303.347    -207.906     468.906
  O      303.092    -206.565     468.415
  C      304.105    -208.609     467.784
  O      304.069    -210.012     467.951
  C      303.356    -208.091     466.569
  O      302.123    -208.814     466.383
  C      303.050    -206.633     466.967
  N      303.930    -203.447     463.049
  C      302.909    -204.284     463.336
  N      302.740    -205.104     464.390
  C      303.785    -204.996     465.232
  C      304.905    -204.194     465.085
  C      304.966    -203.396     463.932
  N      306.016    -202.560     463.648
  N      305.767    -204.355     466.155
  C      305.185    -205.266     466.919
  N      303.980    -205.672     466.409
  O      305.725    -206.185     472.161
  O      306.612    -208.599     472.089
  H      301.782    -208.577     465.486
  H      305.762    -206.417     473.114
  H      302.098    -204.299     462.599
  H      305.596    -205.663     467.841
  H      302.039    -206.327     466.664
  H      303.927    -208.182     465.635
  H      305.153    -208.261     467.759
  H      302.383    -208.398     469.072
  H      303.615    -207.189     470.926
  H      306.018    -202.079     462.758
  H      306.829    -202.572     464.252
  H      304.109    -208.868     470.711
  P      305.446    -210.765     468.278
  C      305.829    -212.955     469.572
  O      304.988    -212.256     468.672
  O      305.838    -210.132     469.699
  O      306.486    -210.666     467.217
  H      305.064    -210.108     470.298
  H      305.383    -213.937     469.775
  H      305.919    -212.403     470.511
  H      306.816    -213.107     469.122
  H      309.582    -205.846     471.396
  H      308.996    -207.143     472.409
  H      308.250    -205.565     472.490

 3  4  5  6  7  8  9  10  11  12  22  25  29  30  31  32 0
 6-311+G(2d,p)
 ****
 33  36  37 0
 6-311+G(2d,p)
 ****
 1  2  13  14  15  16  17  18  19  20  21  23  24  26 0
 3-21G
 ****
 27  28  34  35  38  39  40  41  42  43  44  45  46  47  48 0
 3-21G
 ****


