%nproc=1
%NoSave
%Mem=1900MB
#P OB98/GEN NMR

erre ene a

0 1
  C     -319.120     521.357     529.035
  O     -320.399     521.255     529.669
  P     -321.261     522.572     529.971
  C     -320.050     523.188     532.142
  O     -320.371     523.612     530.816
  C     -319.117     524.162     532.878
  O     -318.852     523.699     534.227
  C     -317.761     524.398     532.209
  O     -317.405     525.756     532.493
  C     -316.855     523.430     532.953
  O     -315.478     523.752     532.819
  C     -317.424     523.547     534.380
  N     -317.089     522.394     535.213
  C     -315.862     522.427     535.873
  O     -315.094     523.376     535.717
  N     -315.514     521.370     536.683
  C     -316.278     520.321     536.733
  N     -315.872     519.299     537.530
  C     -317.541     520.195     535.973
  C     -317.882     521.265     535.254
  O     -322.624     522.312     530.548
  O     -321.400     523.290     528.533
  H     -315.358     524.693     533.055
  H     -322.235     523.779     528.496
  H     -318.129     519.296     536.023
  H     -318.796     521.285     534.661
  H     -317.043     524.447     534.876
  H     -317.003     522.413     532.574
  H     -317.757     524.200     531.125
  H     -319.655     525.125     532.977
  H     -314.988     519.406     538.008
  H     -319.566     522.203     532.082
  H     -316.318     518.398     537.550
  H     -320.973     523.058     532.712
  P     -317.861     526.970     531.557
  C     -315.866     526.867     529.950
  O     -317.265     526.681     530.092
  O     -317.565     528.325     532.097
  O     -319.443     526.758     531.353
  H     -319.844     527.593     531.039
  H     -315.544     526.450     528.998
  H     -315.311     526.365     530.758
  H     -315.643     527.947     529.968
  H     -318.701     520.379     528.919
  H     -318.469     521.955     529.639
  H     -319.234     521.813     528.074

 3  4  5  6  7  8  9  10  11  12  13  23  27  28  29  30  32 0
 6-311+G(2d,p)
 ****
 34  35 0
 6-311+G(2d,p)
 ****
 1  2  14  15  16  17  18  19  20  21  22  24  25  26 0
 3-21G
 ****
 31  33  36  37  38  39  40  41  42  43  44  45  46 0
 3-21G
 ****


