%nproc=1
%NoSave
%Mem=1900MB
#P OB98/GEN NMR

erre ene a

0 1
  C      286.293     -41.163      57.320
  O      284.907     -41.213      57.030
  P      284.349     -42.147      55.858
  C      284.101     -40.317      54.084
  O      284.802     -41.497      54.461
  C      283.593     -40.411      52.644
  O      284.724     -40.634      51.758
  C      282.584     -41.541      52.390
  O      281.671     -41.064      51.394
  C      283.455     -42.640      51.800
  O      282.707     -43.597      51.058
  C      284.419     -41.805      50.968
  N      286.959     -44.377      47.351
  C      285.723     -43.833      47.366
  N      285.107     -43.187      48.377
  C      285.906     -43.125      49.457
  C      287.177     -43.660      49.601
  C      287.718     -44.302      48.473
  N      288.990     -44.829      48.425
  N      287.651     -43.439      50.882
  C      286.685     -42.786      51.495
  N      285.639     -42.516      50.654
  O      282.896     -42.482      55.947
  O      285.253     -43.468      55.953
  H      283.303     -44.336      50.821
  H      284.731     -44.198      56.339
  H      285.155     -43.924      46.445
  H      286.688     -42.488      52.534
  H      283.972     -41.471      50.024
  H      283.976     -43.170      52.606
  H      282.048     -41.865      53.287
  H      283.158     -39.441      52.372
  H      284.792     -39.472      54.168
  H      289.324     -45.145      47.528
  H      289.661     -44.557      49.139
  H      283.261     -40.149      54.768
  P      280.147     -41.561      51.406
  C      280.458     -42.895      49.240
  O      280.116     -42.956      50.616
  O      279.143     -40.552      50.962
  O      279.909     -42.004      52.929
  H      278.952     -42.056      53.107
  H      279.592     -42.558      48.666
  H      280.744     -43.892      48.903
  H      281.293     -42.210      49.074
  H      286.464     -40.486      58.131
  H      286.826     -40.826      56.456
  H      286.636     -42.139      57.593

 3  4  5  6  7  8  9  10  11  12  22  25  29  30  31  32 0
 6-311+G(2d,p)
 ****
 33  36  37 0
 6-311+G(2d,p)
 ****
 1  2  13  14  15  16  17  18  19  20  21  23  24  26 0
 3-21G
 ****
 27  28  34  35  38  39  40  41  42  43  44  45  46  47  48 0
 3-21G
 ****


