%nproc=1
%NoSave
%Mem=1900MB
#P OB98/GEN NMR

erre ene a

0 1
  C     -418.180    -546.419      84.493
  O     -418.049    -547.548      83.614
  P     -419.108    -548.752      83.709
  C     -417.735    -550.586      84.967
  O     -418.784    -549.625      85.015
  C     -417.853    -551.554      86.156
  O     -419.250    -551.727      86.518
  C     -417.346    -552.958      85.876
  O     -415.927    -553.037      85.924
  C     -418.011    -553.755      86.994
  O     -417.270    -553.647      88.220
  C     -419.378    -553.038      87.117
  N     -420.475    -553.796      86.518
  C     -420.673    -555.082      87.010
  O     -419.943    -555.608      87.857
  N     -421.722    -555.777      86.462
  C     -422.531    -555.336      85.451
  O     -423.450    -556.014      84.990
  C     -422.216    -554.011      84.918
  C     -421.218    -553.307      85.462
  O     -418.625    -549.722      82.529
  O     -420.545    -548.373      83.526
  H     -417.716    -554.238      88.862
  H     -419.382    -550.227      82.199
  H     -421.903    -556.704      86.820
  H     -422.821    -553.638      84.097
  H     -420.973    -552.321      85.071
  H     -419.614    -552.853      88.171
  H     -418.096    -554.818      86.758
  H     -417.737    -553.316      84.908
  H     -417.340    -551.117      87.018
  H     -416.763    -550.079      85.029
  H     -417.787    -551.134      84.013
  P     -415.178    -553.158      84.489
  C     -415.627    -555.731      84.527
  O     -415.753    -554.501      83.843
  O     -413.689    -553.526      84.977
  O     -415.288    -551.927      83.659
  H     -413.687    -554.056      85.774
  H     -415.689    -555.599      85.611
  H     -414.664    -556.199      84.264
  H     -416.446    -556.398      84.204
  H     -417.396    -545.719      84.293
  H     -418.114    -546.748      85.509
  H     -419.128    -545.949      84.331

 3  4  5  6  7  8  9  10  11  12  13  23  28  29  30  31  32 0
 6-311+G(2d,p)
 ****
 33  34 0
 6-311+G(2d,p)
 ****
 1  2  14  15  16  17  18  19  20  21  22  24  25  26 0
 3-21G
 ****
 27  35  36  37  38  39  40  41  42  43  44  45 0
 3-21G
 ****


