%nproc=1
%NoSave
%Mem=1900MB
#P OB98/GEN NMR

erre ene a

0 1
  C      -79.815     410.933     825.583
  O      -78.874     409.875     825.825
  P      -78.403     409.480     827.305
  C      -78.366     407.378     828.814
  O      -78.534     407.887     827.488
  C      -78.955     405.973     828.960
  O      -80.401     406.027     829.047
  C      -78.642     405.031     827.795
  O      -77.322     404.521     827.918
  C      -79.747     403.990     827.956
  O      -79.399     403.033     828.966
  C      -80.934     404.850     828.413
  N      -85.437     403.876     826.175
  C      -84.832     403.359     827.283
  N      -83.641     403.665     827.812
  C      -83.039     404.633     827.084
  C      -83.522     405.264     825.942
  C      -84.776     404.837     825.476
  N      -85.375     405.359     824.352
  N      -82.608     406.192     825.475
  C      -81.608     406.144     826.336
  N      -81.824     405.219     827.327
  O      -79.061     410.270     828.397
  O      -76.819     409.720     827.311
  H      -78.524     402.656     828.736
  H      -76.516     409.938     828.220
  H      -85.411     402.593     827.803
  H      -80.716     406.753     826.273
  H      -81.531     404.331     829.169
  H      -79.933     403.431     827.028
  H      -78.771     405.552     826.844
  H      -78.589     405.551     829.904
  H      -78.876     408.066     829.511
  H      -86.264     404.982     824.066
  H      -84.878     406.043     823.797
  H      -77.295     407.365     829.052
  P      -76.158     405.088     826.959
  C      -73.833     404.313     826.204
  O      -74.932     404.060     827.059
  O      -75.806     406.522     827.157
  O      -76.728     404.827     825.480
  H      -76.368     405.507     824.876
  H      -74.067     403.952     825.190
  H      -72.962     403.775     826.572
  H      -73.603     405.384     826.160
  H      -79.986     411.025     824.531
  H      -79.422     411.853     825.962
  H      -80.738     410.709     826.076

 3  4  5  6  7  8  9  10  11  12  22  25  29  30  31  32 0
 6-311+G(2d,p)
 ****
 33  36  37 0
 6-311+G(2d,p)
 ****
 1  2  13  14  15  16  17  18  19  20  21  23  24  26 0
 3-21G
 ****
 27  28  34  35  38  39  40  41  42  43  44  45  46  47  48 0
 3-21G
 ****


