%nproc=1
%NoSave
%Mem=1900MB
#P OB98/GEN NMR

erre ene a

0 1
  C      131.813    -416.169     -81.880
  O      131.585    -416.316     -80.495
  H      132.886    -416.172     -82.091
  H      131.347    -417.006     -82.407
  H      131.368    -415.233     -82.238
  P      132.182    -415.176     -79.533
  C      134.584    -414.423     -78.874
  O      133.775    -415.376     -79.557
  C      135.610    -415.148     -78.013
  O      134.947    -416.005     -77.052
  C      136.556    -416.058     -78.796
  O      137.619    -415.341     -79.392
  C      137.057    -416.959     -77.675
  O      138.046    -416.261     -76.897
  C      135.785    -417.174     -76.853
  N      134.708    -422.023     -75.611
  C      135.514    -421.101     -75.034
  N      135.749    -419.834     -75.428
  C      135.051    -419.545     -76.545
  C      134.204    -420.383     -77.247
  C      134.034    -421.681     -76.732
  N      133.227    -422.630     -77.322
  N      133.694    -419.746     -78.365
  C      134.206    -418.530     -78.309
  N      135.041    -418.362     -77.237
  O      131.774    -415.670     -78.063
  O      131.723    -413.786     -79.815
  H      138.608    -415.775     -77.531
  H      131.793    -414.919     -77.440
  H      136.034    -421.427     -74.140
  H      134.002    -417.743     -79.022
  H      135.984    -417.251     -75.775
  H      137.527    -417.872     -78.046
  H      136.016    -416.670     -79.527
  H      136.176    -414.392     -77.447
  H      133.945    -413.806     -78.237
  H      133.319    -423.579     -76.986
  H      132.841    -422.435     -78.236
  H      135.084    -413.784     -79.611
  P      138.345    -416.021     -80.658
  C      139.752    -418.180     -81.011
  O      139.069    -417.334     -80.089
  O      139.556    -415.022     -80.952
  O      137.469    -416.223     -81.846
  H      139.823    -415.062     -81.894
  H      140.180    -419.008     -80.486
  H      140.528    -417.626     -81.496
  H      139.060    -418.542     -81.743

 6  7  8  9  10  11  12  13  14  15  25  28  32  33  34  35 0
 6-311+G(2d,p)
 ****
 36  39  40 0
 6-311+G(2d,p)
 ****
 1  2  3  4  5  16  17  18  19  20  21  22  23  24 0
 3-21G
 ****
 26  27  29  30  31  37  38  41  42  43  44  45  46  47 0
 3-21G
 ****
 48 0
 3-21G
 ****


