%nproc=1
%NoSave
%Mem=1900MB
#P OB98/GEN NMR

erre ene a

0 1
  C       82.153     708.261     295.545
  O       81.678     708.413     296.866
  H       82.901     707.470     295.526
  H       82.624     709.194     295.218
  H       81.337     707.997     294.864
  P       80.312     709.229     297.070
  C       81.004     711.677     296.549
  O       80.379     710.493     296.076
  C       81.028     712.745     295.446
  O       82.085     712.408     294.502
  C       79.710     712.860     294.662
  O       79.488     714.237     294.330
  C       80.023     712.113     293.369
  O       79.186     712.515     292.293
  C       81.498     712.473     293.184
  N       81.722     711.239     288.327
  C       81.127     712.313     288.955
  N       80.434     713.174     288.170
  N       81.210     712.533     290.241
  C       81.950     711.613     290.899
  C       82.582     710.501     290.400
  C       82.475     710.260     288.976
  O       82.962     709.305     288.370
  N       83.182     709.783     291.404
  C       82.889     710.446     292.510
  N       82.143     711.567     292.251
  O       80.504     709.878     298.519
  O       79.058     708.418     296.981
  H       79.359     711.923     291.531
  H       80.087     709.310     299.192
  H       81.620     711.109     287.332
  H       83.171     710.151     293.512
  H       81.637     713.488     292.798
  H       79.896     711.029     293.525
  H       80.354     713.091     287.171
  H       78.838     712.459     295.182
  H       80.034     713.986     288.615
  H       81.293     713.707     295.903
  H       82.036     711.451     296.848
  H       80.464     712.048     297.426
  P       78.357     715.028     295.141
  C       76.318     715.065     293.518
  O       76.922     714.495     294.672
  O       78.420     716.504     294.512
  O       78.582     715.060     296.619
  H       78.230     717.166     295.203
  H       75.370     714.600     293.345
  H       76.952     714.910     292.670
  H       76.177     716.115     293.671

 6  7  8  9  10  11  12  13  14  15  26  29  33  34 0
 6-311+G(2d,p)
 ****
 36  38  39  40  41 0
 6-311+G(2d,p)
 ****
 1  2  3  4  5  16  17  18  19  20  21  22  23  24  25 0
 3-21G
 ****
 27  28  30  31  32  35  37  42  43  44  45  46  47 0
 3-21G
 ****
 48  49 0
 3-21G
 ****


