%nproc=1
%NoSave
%Mem=1900MB
#P OB98/GEN NMR

erre ene a

0 1
  C      879.648    -561.479    -778.134
  O      880.833    -560.873    -777.660
  H      879.875    -562.494    -778.458
  H      879.260    -560.918    -778.982
  H      878.889    -561.533    -777.345
  P      880.734    -559.497    -776.843
  C      882.003    -560.371    -774.765
  O      882.002    -559.461    -775.860
  C      883.429    -560.686    -774.313
  O      884.033    -561.612    -775.268
  C      884.350    -559.451    -774.220
  O      885.288    -559.694    -773.190
  C      885.025    -559.481    -775.586
  O      886.194    -558.685    -775.600
  C      885.236    -560.990    -775.772
  N      885.517    -561.357    -777.163
  C      886.814    -561.687    -777.486
  O      887.758    -561.642    -776.661
  N      887.064    -562.009    -778.789
  C      886.155    -561.981    -779.806
  O      886.425    -562.249    -780.953
  C      884.776    -561.586    -779.414
  C      884.520    -561.308    -778.125
  O      879.424    -559.225    -776.182
  O      881.103    -558.368    -777.930
  H      886.812    -558.985    -774.878
  H      880.642    -557.541    -777.717
  H      888.020    -562.239    -779.025
  H      884.026    -561.548    -780.199
  H      883.527    -560.998    -777.829
  H      886.078    -561.339    -775.155
  H      884.363    -559.083    -776.374
  H      883.803    -558.516    -774.043
  H      883.387    -561.206    -773.347
  H      881.502    -561.288    -775.112
  H      881.426    -559.945    -773.928
  P      886.173    -558.514    -772.528
  C      885.467    -558.806    -770.056
  O      886.529    -558.918    -771.013
  O      885.560    -557.143    -772.667
  O      887.588    -558.587    -773.270
  H      887.996    -557.689    -773.288
  H      885.824    -559.100    -769.091
  H      884.657    -559.442    -770.346
  H      885.128    -557.792    -770.017

 6  7  8  9  10  11  12  13  14  15  16  26  31  32  33  34  35 0
 6-311+G(2d,p)
 ****
 36  37 0
 6-311+G(2d,p)
 ****
 1  2  3  4  5  17  18  19  20  21  22  23  24  25 0
 3-21G
 ****
 27  28  29  30  38  39  40  41  42  43  44  45 0
 3-21G
 ****


