%nproc=1
%NoSave
%Mem=1900MB
#P OB98/GEN NMR

erre ene a

0 1
  C       26.666     143.537      53.796
  O       27.151     143.894      55.074
  H       26.058     142.635      53.891
  H       27.500     143.324      53.124
  H       26.047     144.334      53.377
  P       27.906     145.297      55.249
  C       25.661     146.440      55.801
  O       26.821     146.445      54.978
  C       25.723     147.600      56.790
  O       26.822     147.416      57.707
  C       25.949     148.960      56.140
  O       24.764     149.435      55.532
  C       26.424     149.769      57.338
  O       25.313     150.193      58.141
  C       27.287     148.729      58.092
  N       28.719     148.874      57.833
  C       29.578     148.393      58.816
  O       29.181     147.907      59.872
  N       30.916     148.511      58.550
  C       31.463     149.124      57.459
  O       32.673     149.251      57.294
  C       30.508     149.643      56.472
  C       29.203     149.496      56.699
  O       29.183     145.446      54.491
  O       28.147     145.398      56.830
  H       24.786     150.803      57.590
  H       29.066     145.151      57.039
  H       31.552     148.180      59.257
  H       30.908     150.141      55.597
  H       28.482     149.879      55.983
  H       27.125     148.815      59.172
  H       26.963     150.672      57.049
  H       26.766     148.901      55.412
  H       24.794     147.600      57.376
  H       25.625     145.493      56.350
  H       24.775     146.519      55.165
  P       24.712     149.730      53.961
  C       23.854     147.407      53.311
  O       24.927     148.331      53.198
  O       25.596     150.835      53.491
  O       23.173     150.062      53.679
  H       23.063     151.021      53.530
  H       24.094     146.514      52.772
  H       22.965     147.841      52.904
  H       23.695     147.169      54.342

 6  7  8  9  10  11  12  13  14  15  16  26  31  32  33  34  35 0
 6-311+G(2d,p)
 ****
 36  37 0
 6-311+G(2d,p)
 ****
 1  2  3  4  5  17  18  19  20  21  22  23  24  25 0
 3-21G
 ****
 27  28  29  30  38  39  40  41  42  43  44  45 0
 3-21G
 ****


