%nproc=1
%NoSave
%Mem=1900MB
#P OB98/GEN NMR

erre ene a

0 1
  C       93.829     166.649    -109.016
  O       95.007     167.337    -108.646
  P       95.066     168.127    -107.255
  C       93.960     170.197    -106.201
  O       93.970     169.298    -107.309
  C       93.344     171.533    -106.611
  O       94.180     172.197    -107.583
  C       91.975     171.410    -107.270
  O       90.972     171.164    -106.302
  C       91.863     172.757    -107.973
  O       91.435     173.774    -107.052
  C       93.316     173.006    -108.411
  N       92.208     174.368    -113.203
  C       91.709     174.770    -112.015
  N       92.032     174.328    -110.778
  C       92.955     173.355    -110.852
  C       93.533     172.820    -111.991
  C       93.145     173.385    -113.220
  N       93.693     173.028    -114.430
  N       94.422     171.814    -111.656
  C       94.370     171.743    -110.339
  N       93.549     172.696    -109.807
  O       96.429     168.559    -106.822
  O       94.441     167.094    -106.204
  H       92.159     173.915    -106.414
  H       95.104     166.885    -105.517
  H       90.956     175.552    -112.061
  H       94.916     171.033    -109.732
  H       93.616     174.050    -108.256
  H       91.146     172.745    -108.799
  H       91.991     170.610    -108.024
  H       93.286     172.172    -105.717
  H       94.991     170.348    -105.871
  H       93.446     173.597    -115.229
  H       94.582     172.532    -114.433
  H       93.390     169.751    -105.380
  P       89.569     170.532    -106.755
  C       87.594     171.318    -108.191
  O       88.725     171.712    -107.439
  O       88.845     169.747    -105.709
  O       89.957     169.609    -108.006
  H       89.358     168.838    -108.042
  H       87.916     170.943    -109.166
  H       86.950     172.190    -108.340
  H       87.027     170.540    -107.669
  H       93.972     166.183    -109.969
  H       93.015     167.341    -109.076
  H       93.608     165.901    -108.283

 3  4  5  6  7  8  9  10  11  12  22  25  29  30  31  32 0
 6-311+G(2d,p)
 ****
 33  36  37 0
 6-311+G(2d,p)
 ****
 1  2  13  14  15  16  17  18  19  20  21  23  24  26 0
 3-21G
 ****
 27  28  34  35  38  39  40  41  42  43  44  45  46  47  48 0
 3-21G
 ****


