%nproc=1
%NoSave
%Mem=1900MB
#P OB98/GEN NMR

erre ene a

0 1
  C     -256.688    -475.809      80.990
  O     -255.786    -475.731      82.072
  H     -256.705    -476.838      80.625
  H     -256.353    -475.155      80.180
  H     -257.699    -475.529      81.294
  P     -255.805    -474.424      82.998
  C     -255.689    -475.440      85.368
  O     -256.509    -474.835      84.379
  C     -256.088    -476.904      85.583
  O     -255.944    -477.620      84.330
  C     -255.172    -477.593      86.599
  O     -255.829    -478.656      87.282
  C     -254.074    -478.174      85.721
  O     -253.390    -479.269      86.329
  C     -254.861    -478.557      84.469
  N     -252.775    -481.337      80.742
  C     -253.373    -481.757      81.913
  N     -253.427    -483.093      82.116
  N     -253.858    -480.940      82.812
  C     -253.671    -479.633      82.512
  C     -253.072    -479.095      81.396
  C     -252.573    -480.009      80.392
  O     -252.013    -479.690      79.346
  N     -253.059    -477.723      81.446
  C     -253.644    -477.432      82.591
  N     -254.054    -478.557      83.264
  O     -256.911    -473.490      82.311
  O     -254.495    -473.711      83.137
  H     -253.039    -478.956      87.181
  H     -256.771    -472.559      82.559
  H     -252.448    -482.007      80.069
  H     -253.808    -476.430      82.969
  H     -255.294    -479.557      84.576
  H     -253.334    -477.392      85.537
  H     -252.897    -483.738      81.548
  H     -254.761    -476.902      87.331
  H     -253.570    -483.401      83.081
  H     -257.144    -476.968      85.865
  H     -255.823    -474.865      86.287
  H     -254.637    -475.365      85.088
  P     -256.720    -478.306      88.568
  C     -258.956    -479.633      88.083
  O     -258.269    -478.408      88.197
  O     -256.478    -476.741      88.782
  O     -256.373    -479.098      89.790
  H     -256.022    -476.580      89.628
  H     -259.978    -479.446      87.827
  H     -258.911    -480.155      89.016
  H     -258.500    -480.228      87.319

 6  7  8  9  10  11  12  13  14  15  26  29  33  34 0
 6-311+G(2d,p)
 ****
 36  38  39  40  41 0
 6-311+G(2d,p)
 ****
 1  2  3  4  5  16  17  18  19  20  21  22  23  24  25 0
 3-21G
 ****
 27  28  30  31  32  35  37  42  43  44  45  46  47 0
 3-21G
 ****
 48  49 0
 3-21G
 ****


