%nproc=1
%NoSave
%Mem=1900MB
#P OB98/GEN NMR

erre ene a

0 1
  C     -215.908    -175.076    -102.963
  O     -217.310    -175.262    -102.855
  P     -218.232    -173.951    -102.764
  C     -219.310    -174.993    -100.600
  O     -218.726    -173.869    -101.242
  C     -218.695    -175.186     -99.212
  O     -217.264    -175.009     -99.279
  C     -219.178    -174.195     -98.162
  O     -220.474    -174.522     -97.683
  C     -218.068    -174.305     -97.122
  O     -218.270    -175.467     -96.299
  C     -216.821    -174.491     -98.010
  N     -216.048    -173.260     -98.179
  C     -215.400    -172.781     -97.045
  O     -215.457    -173.336     -95.950
  N     -214.694    -171.616     -97.211
  C     -214.630    -170.872     -98.352
  O     -214.018    -169.814     -98.433
  C     -215.361    -171.413     -99.508
  C     -216.024    -172.564     -99.371
  O     -219.516    -174.437    -103.585
  O     -217.566    -172.727    -103.298
  H     -219.624    -175.405    -103.545
  H     -217.543    -175.471     -95.644
  H     -214.197    -171.259     -96.409
  H     -215.340    -170.845    -100.429
  H     -216.578    -172.972    -100.208
  H     -216.161    -175.255     -97.580
  H     -218.027    -173.435     -96.457
  H     -219.186    -173.183     -98.583
  H     -218.897    -176.216     -98.891
  H     -219.130    -175.884    -101.210
  H     -220.390    -174.835    -100.522
  P     -221.634    -173.441     -97.958
  C     -222.086    -173.156     -95.400
  O     -221.744    -172.554     -96.628
  O     -222.936    -174.371     -97.923
  O     -221.451    -172.675     -99.229
  H     -222.914    -175.027     -97.208
  H     -221.769    -172.499     -94.587
  H     -221.599    -174.127     -95.280
  H     -223.172    -173.284     -95.346
  H     -215.425    -176.029    -103.014
  H     -215.552    -174.541    -102.107
  H     -215.690    -174.517    -103.849

 3  4  5  6  7  8  9  10  11  12  13  24  28  29  30  31  32 0
 6-311+G(2d,p)
 ****
 33  34 0
 6-311+G(2d,p)
 ****
 1  2  14  15  16  17  18  19  20  21  22  23  25  26  27 0
 3-21G
 ****
 35  36  37  38  39  40  41  42  43  44  45 0
 3-21G
 ****


