%nproc=1
%NoSave
%Mem=1900MB
#P OB98/GEN NMR

erre ene a

0 1
  C     1554.830    -897.940      15.536
  O     1553.606    -897.540      14.946
  H     1554.741    -897.860      16.622
  H     1555.637    -897.270      15.203
  H     1555.090    -898.960      15.270
  P     1553.309    -897.980      13.439
  C     1550.826    -897.400      13.837
  O     1551.952    -897.260      12.967
  C     1549.720    -896.400      13.474
  O     1549.480    -896.420      12.048
  C     1548.378    -896.750      14.145
  O     1548.208    -896.230      15.450
  C     1547.377    -896.130      13.166
  O     1547.105    -894.770      13.503
  C     1548.084    -896.240      11.820
  N     1544.098    -898.270       9.360
  C     1544.099    -897.210      10.272
  N     1542.906    -896.680      10.565
  N     1545.199    -896.780      10.808
  C     1546.304    -897.480      10.487
  C     1546.400    -898.550       9.625
  C     1545.208    -899.010       8.957
  O     1545.125    -899.910       8.132
  N     1547.679    -899.040       9.571
  C     1548.331    -898.330      10.466
  N     1547.559    -897.320      10.994
  O     1552.860    -899.510      13.573
  O     1554.464    -897.840      12.484
  H     1546.527    -894.760      14.287
  H     1553.120    -900.000      12.761
  H     1543.222    -898.560       8.936
  H     1549.374    -898.480      10.732
  H     1547.979    -895.310      11.237
  H     1546.431    -896.660      13.203
  H     1542.022    -897.050      10.225
  H     1548.217    -897.850      14.155
  H     1542.862    -896.050      11.356
  H     1550.031    -895.390      13.743
  H     1551.195    -897.200      14.846
  H     1550.443    -898.430      13.797
  P     1547.500    -897.070      16.591
  C     1548.808    -895.980      18.596
  O     1547.568    -896.250      17.964
  O     1548.520    -898.290      16.856
  O     1546.125    -897.570      16.270
  H     1548.230    -899.090      16.380
  H     1548.637    -895.424      19.494
  H     1549.428    -895.409      17.936
  H     1549.295    -896.902      18.834

 6  7  8  9  10  11  12  13  14  15  26  29  33  34 0
 6-311+G(2d,p)
 ****
 36  38  39  40  41 0
 6-311+G(2d,p)
 ****
 1  2  3  4  5  16  17  18  19  20  21  22  23  24  25 0
 3-21G
 ****
 27  28  30  31  32  35  37  42  43  44  45  46  47 0
 3-21G
 ****
 48  49 0
 3-21G
 ****


