%nproc=1
%NoSave
%Mem=1900MB
#P OB98/GEN NMR

erre ene a

0 1
  C       17.903       5.749     143.595
  O       16.816       4.901     143.236
  P       17.126       3.575     142.391
  C       17.689       3.018     139.866
  O       17.531       3.967     140.897
  C       17.732       3.745     138.511
  O       16.423       4.253     138.173
  C       18.690       4.932     138.494
  O       20.014       4.542     138.176
  C       18.057       5.830     137.450
  O       18.358       5.350     136.127
  C       16.553       5.644     137.763
  N       15.947       6.502     138.804
  C       15.934       7.885     138.640
  O       16.405       8.471     137.669
  N       15.337       8.603     139.642
  C       14.617       8.094     140.682
  O       14.053       8.787     141.519
  C       14.534       6.630     140.728
  C       15.198       5.916     139.816
  O       15.695       2.884     142.231
  O       18.124       2.658     143.027
  H       19.292       5.556     135.951
  H       15.678       2.026     142.695
  H       15.382       9.609     139.576
  H       13.934       6.182     141.509
  H       15.143       4.830     139.842
  H       15.951       5.776     136.856
  H       18.456       6.840     137.504
  H       18.658       5.457     139.452
  H       18.023       3.020     137.740
  H       16.872       2.293     139.874
  H       18.614       2.455     140.023
  P       21.203       4.848     139.204
  C       22.909       6.751     139.424
  O       21.650       6.361     138.908
  O       22.307       3.845     139.246
  O       20.454       4.978     140.617
  H       20.491       4.126     141.109
  H       23.162       7.736     139.023
  H       23.682       6.037     139.127
  H       22.860       6.814     140.514
  H       17.534       6.585     144.152
  H       18.391       6.098     142.709
  H       18.600       5.201     144.194

 3  4  5  6  7  8  9  10  11  12  13  23  28  29  30  31  32 0
 6-311+G(2d,p)
 ****
 33  34 0
 6-311+G(2d,p)
 ****
 1  2  14  15  16  17  18  19  20  21  22  24  25  26  27 0
 3-21G
 ****
 35  36  37  38  39  40  41  42  43  44  45 0
 3-21G
 ****


