%nproc=1
%NoSave
%Mem=1900MB
#P OB98/GEN NMR

erre ene a

0 1
  C     1378.892    -370.094     192.331
  O     1378.731    -368.718     192.023
  H     1378.206    -370.674     191.700
  H     1378.649    -370.271     193.379
  H     1379.917    -370.402     192.115
  P     1379.630    -367.686     192.871
  C     1379.776    -367.354     195.426
  O     1378.955    -367.683     194.330
  C     1378.978    -367.367     196.729
  O     1378.479    -368.695     196.996
  C     1379.741    -366.936     197.961
  O     1379.776    -365.529     198.066
  C     1378.904    -367.562     199.078
  O     1377.766    -366.709     199.342
  C     1378.421    -368.875     198.433
  N     1379.434    -372.382     202.064
  C     1378.728    -371.227     202.100
  N     1378.540    -370.308     201.118
  C     1379.180    -370.701     199.988
  C     1379.923    -371.854     199.801
  C     1380.047    -372.718     200.886
  N     1380.768    -373.892     200.853
  N     1380.451    -371.902     198.522
  C     1379.956    -370.834     197.922
  N     1379.203    -370.057     198.781
  O     1379.851    -366.354     192.234
  O     1380.948    -368.555     193.105
  H     1377.171    -367.227     199.932
  H     1380.721    -369.482     193.315
  H     1378.229    -371.013     203.041
  H     1380.072    -370.592     196.867
  H     1377.379    -369.103     198.690
  H     1379.453    -367.665     200.012
  H     1380.760    -367.384     197.997
  H     1378.088    -366.722     196.580
  H     1380.242    -366.371     195.295
  H     1380.937    -374.352     201.733
  H     1381.345    -374.062     200.023
  H     1380.581    -368.115     195.484
  P     1380.998    -364.766     198.803
  C     1381.862    -364.675     201.214
  O     1380.882    -365.216     200.337
  O     1381.044    -363.301     198.550
  O     1382.302    -365.549     198.284
  H     1383.095    -364.991     198.482
  H     1381.692    -365.038     202.206
  H     1381.795    -363.607     201.209
  H     1382.836    -364.973     200.887

 6  7  8  9  10  11  12  13  14  15  25  28  32  33  34  35 0
 6-311+G(2d,p)
 ****
 36  39  40 0
 6-311+G(2d,p)
 ****
 1  2  3  4  5  16  17  18  19  20  21  22  23  24 0
 3-21G
 ****
 26  27  29  30  31  37  38  41  42  43  44  45  46  47 0
 3-21G
 ****
 48 0
 3-21G
 ****


