%nproc=1
%NoSave
%Mem=1900MB
#P OB98/GEN NMR

erre ene a

0 1
  C     -459.543     234.275    -388.367
  O     -459.547     234.118    -389.768
  P     -459.989     235.330    -390.721
  C     -462.195     236.574    -391.187
  O     -461.591     235.408    -390.630
  C     -463.393     236.179    -392.049
  O     -464.306     235.325    -391.316
  C     -464.248     237.355    -392.498
  O     -463.669     238.283    -393.381
  C     -465.508     236.640    -392.964
  O     -465.352     236.126    -394.286
  C     -465.605     235.486    -391.937
  N     -466.657     235.725    -390.945
  C     -467.876     235.113    -391.196
  O     -468.098     234.404    -392.173
  N     -468.869     235.362    -390.283
  C     -468.770     236.185    -389.197
  O     -469.713     236.400    -388.446
  C     -467.461     236.820    -389.001
  C     -466.474     236.567    -389.867
  O     -459.451     235.276    -392.110
  O     -459.540     236.628    -389.897
  H     -465.229     236.889    -394.885
  H     -459.953     236.719    -389.020
  H     -469.763     234.933    -390.449
  H     -467.344     237.474    -388.142
  H     -465.498     237.025    -389.738
  H     -465.831     234.547    -392.449
  H     -466.374     237.317    -392.982
  H     -464.523     237.932    -391.605
  H     -463.026     235.600    -392.904
  H     -461.459     237.088    -391.813
  H     -462.488     237.250    -390.381
  P     -463.836     239.870    -393.232
  C     -465.824     241.532    -393.308
  O     -465.327     240.264    -393.666
  O     -462.723     240.713    -393.758
  O     -463.901     240.038    -391.638
  H     -463.525     240.898    -391.390
  H     -466.862     241.612    -393.640
  H     -465.245     242.322    -393.788
  H     -465.794     241.665    -392.219
  H     -459.221     233.364    -387.907
  H     -460.531     234.514    -388.032
  H     -458.874     235.066    -388.099

 3  4  5  6  7  8  9  10  11  12  13  23  28  29  30  31  32 0
 6-311+G(2d,p)
 ****
 33  34 0
 6-311+G(2d,p)
 ****
 1  2  14  15  16  17  18  19  20  21  22  24  25  26  27 0
 3-21G
 ****
 35  36  37  38  39  40  41  42  43  44  45 0
 3-21G
 ****


