%nproc=1
%NoSave
%Mem=1900MB
#P OB98/GEN NMR

erre ene a

0 1
  C     -311.880    -159.550     368.554
  O     -310.481    -159.672     368.753
  P     -309.488    -158.459     368.414
  C     -309.708    -157.675     370.852
  O     -309.846    -157.319     369.482
  C     -309.076    -156.525     371.632
  O     -307.703    -156.380     371.197
  C     -309.710    -155.150     371.423
  O     -310.844    -154.892     372.238
  C     -308.564    -154.243     371.855
  O     -308.506    -154.186     373.292
  C     -307.341    -154.981     371.303
  N     -304.412    -151.584     368.845
  C     -304.576    -151.853     370.160
  N     -305.390    -152.761     370.736
  C     -306.050    -153.463     369.801
  C     -305.984    -153.308     368.428
  C     -305.116    -152.311     367.948
  N     -304.933    -152.055     366.607
  N     -306.827    -154.199     367.793
  C     -307.379    -154.890     368.772
  N     -306.935    -154.487     370.001
  O     -309.492    -158.038     366.987
  O     -308.056    -158.973     368.905
  H     -309.379    -153.877     373.600
  H     -307.350    -158.427     368.509
  H     -303.976    -151.255     370.841
  H     -308.100    -155.679     368.637
  H     -306.475    -154.918     371.972
  H     -308.678    -153.216     371.500
  H     -309.931    -154.968     370.365
  H     -309.067    -156.792     372.695
  H     -309.055    -158.553     370.914
  H     -304.197    -151.416     366.354
  H     -305.330    -152.702     365.941
  H     -310.684    -157.942     371.264
  P     -311.903    -153.808     371.697
  C     -313.573    -155.440     370.515
  O     -312.562    -154.464     370.392
  O     -311.349    -152.437     371.518
  O     -313.077    -153.889     372.784
  H     -313.571    -154.724     372.796
  H     -313.995    -155.637     369.527
  H     -314.373    -155.093     371.173
  H     -313.151    -156.370     370.907
  H     -312.362    -160.462     368.838
  H     -312.077    -159.349     367.522
  H     -312.257    -158.747     369.152

 3  4  5  6  7  8  9  10  11  12  22  25  29  30  31  32 0
 6-311+G(2d,p)
 ****
 33  36  37 0
 6-311+G(2d,p)
 ****
 1  2  13  14  15  16  17  18  19  20  21  23  24  26 0
 3-21G
 ****
 27  28  34  35  38  39  40  41  42  43  44  45  46  47  48 0
 3-21G
 ****


