%nproc=1
%NoSave
%Mem=1900MB
#P OB98/GEN NMR

erre ene a

0 1
  C      364.212     -53.293      45.618
  O      364.989     -54.352      45.041
  P      365.049     -54.627      43.461
  C      367.336     -53.740      42.661
  O      366.569     -54.885      43.025
  C      368.567     -54.125      41.835
  O      369.285     -52.947      41.410
  C      369.592     -54.976      42.573
  O      369.157     -56.321      42.686
  C      370.827     -54.772      41.701
  O      370.802     -55.650      40.561
  C      370.673     -53.302      41.266
  N      371.536     -52.403      42.018
  C      372.910     -52.520      41.800
  O      373.348     -53.391      41.043
  N      373.761     -51.665      42.459
  C      373.285     -50.821      43.317
  N      374.175     -49.994      43.935
  C      371.854     -50.723      43.647
  C      371.043     -51.534      42.968
  O      364.347     -53.594      42.640
  O      364.358     -56.061      43.264
  H      370.046     -55.371      40.014
  H      363.923     -56.086      42.392
  H      371.499     -50.024      44.393
  H      369.973     -51.523      43.141
  H      370.901     -53.192      40.198
  H      371.760     -54.972      42.236
  H      369.777     -54.551      43.569
  H      368.216     -54.645      40.933
  H      375.148     -50.083      43.680
  H      367.659     -53.240      43.579
  H      373.907     -49.300      44.618
  H      366.697     -53.055      42.093
  P      369.409     -57.130      44.044
  C      367.327     -56.226      45.240
  O      367.987     -57.373      44.735
  O      370.468     -56.572      44.940
  O      369.808     -58.600      43.539
  H      370.431     -58.996      44.179
  H      366.254     -56.435      45.307
  H      367.481     -55.360      44.587
  H      367.708     -56.000      46.241
  H      364.327     -53.305      46.682
  H      363.181     -53.431      45.369
  H      364.549     -52.353      45.233

 3  4  5  6  7  8  9  10  11  12  13  23  27  28  29  30  32 0
 6-311+G(2d,p)
 ****
 34  35 0
 6-311+G(2d,p)
 ****
 1  2  14  15  16  17  18  19  20  21  22  24  25  26 0
 3-21G
 ****
 31  33  36  37  38  39  40  41  42  43  44  45  46 0
 3-21G
 ****


