%nproc=1
%NoSave
%Mem=1900MB
#P OB98/GEN NMR

erre ene a

0 1
  C      -74.126     201.061     108.935
  O      -75.479     201.345     108.568
  P      -75.889     201.333     107.019
  C      -76.679     198.895     106.727
  O      -77.063     200.260     106.800
  C      -77.810     197.977     107.220
  O      -78.003     198.160     108.650
  C      -79.150     198.250     106.523
  O      -79.758     197.070     105.996
  C      -79.952     198.997     107.576
  O      -81.354     198.897     107.379
  C      -79.397     198.432     108.888
  N      -79.598     199.352     110.011
  C      -80.595     199.017     110.920
  O      -81.341     198.049     110.777
  N      -80.754     199.872     111.978
  C      -80.082     201.044     112.166
  O      -80.294     201.799     113.106
  C      -79.084     201.378     111.138
  C      -78.892     200.530     110.125
  O      -74.760     201.243     106.049
  O      -76.668     202.729     106.848
  H      -81.805     199.372     108.112
  H      -76.430     203.101     105.976
  H      -81.462     199.634     112.657
  H      -78.547     202.310     111.243
  H      -78.175     200.758     109.348
  H      -79.890     197.488     109.148
  H      -79.693     200.062     107.515
  H      -79.020     198.893     105.646
  H      -77.490     196.944     107.044
  H      -75.796     198.733     107.347
  H      -76.380     198.656     105.701
  P      -79.618     196.577     104.480
  C      -77.580     195.003     104.198
  O      -78.959     195.119     104.484
  O      -78.992     197.549     103.538
  O      -81.138     196.295     104.053
  H      -81.275     196.600     103.136
  H      -77.375     193.977     103.879
  H      -77.000     195.212     105.101
  H      -77.278     195.689     103.400
  H      -74.027     201.111     109.999
  H      -73.475     201.780     108.482
  H      -73.863     200.080     108.598

 3  4  5  6  7  8  9  10  11  12  13  23  28  29  30  31  32 0
 6-311+G(2d,p)
 ****
 33  34 0
 6-311+G(2d,p)
 ****
 1  2  14  15  16  17  18  19  20  21  22  24  25  26  27 0
 3-21G
 ****
 35  36  37  38  39  40  41  42  43  44  45 0
 3-21G
 ****


