%nproc=1
%NoSave
%Mem=1900MB
#P OB98/GEN NMR

erre ene a

0 1
  C      -91.691    -149.900    -294.731
  O      -92.919    -149.448    -294.197
  P      -93.038    -147.985    -293.555
  C      -95.494    -148.266    -294.296
  O      -94.609    -147.761    -293.299
  C      -96.920    -147.771    -294.059
  O      -96.941    -146.337    -293.919
  C      -97.886    -148.092    -295.192
  O      -98.281    -149.451    -295.142
  C      -99.002    -147.094    -294.915
  O      -99.904    -147.585    -293.910
  C      -98.221    -145.868    -294.396
  N      -98.074    -144.833    -295.411
  C      -99.214    -144.061    -295.665
  O     -100.269    -144.294    -295.075
  N      -99.143    -143.075    -296.621
  C      -98.039    -142.896    -297.277
  N      -98.037    -141.914    -298.220
  C      -96.825    -143.708    -297.061
  C      -96.914    -144.650    -296.125
  O      -92.352    -146.897    -294.312
  O      -92.463    -148.190    -292.075
  H     -100.202    -148.464    -294.218
  H      -91.479    -148.280    -292.080
  H      -95.933    -143.529    -297.641
  H      -96.072    -145.294    -295.904
  H      -98.730    -145.427    -293.529
  H      -99.602    -146.891    -295.809
  H      -97.417    -147.859    -296.156
  H      -97.281    -148.209    -293.120
  H      -98.898    -141.400    -298.359
  H      -95.478    -149.358    -294.248
  H      -97.243    -141.713    -298.811
  H      -95.136    -147.961    -295.285
  P      -98.258    -150.338    -296.473
  C      -98.343    -152.291    -294.814
  O      -98.738    -151.816    -296.084
  O      -96.994    -150.267    -297.268
  O      -99.493    -149.770    -297.322
  H      -99.215    -149.665    -298.251
  H      -98.987    -153.132    -294.537
  H      -98.432    -151.510    -294.054
  H      -97.308    -152.639    -294.859
  H      -91.811    -150.893    -295.110
  H      -90.946    -149.899    -293.963
  H      -91.386    -149.250    -295.524

 3  4  5  6  7  8  9  10  11  12  13  23  27  28  29  30  32 0
 6-311+G(2d,p)
 ****
 34  35 0
 6-311+G(2d,p)
 ****
 1  2  14  15  16  17  18  19  20  21  22  24  25  26 0
 3-21G
 ****
 31  33  36  37  38  39  40  41  42  43  44  45  46 0
 3-21G
 ****


