%nproc=1
%NoSave
%Mem=1900MB
#P OB98/GEN NMR

erre ene a

0 1
  C      298.660     411.528    -461.912
  O      299.411     411.325    -460.733
  H      297.811     410.849    -461.912
  H      299.284     411.312    -462.792
  H      298.294     412.559    -461.963
  P      300.614     412.351    -460.456
  C      298.768     414.099    -459.762
  O      299.952     413.813    -460.490
  C      298.995     415.238    -458.772
  O      299.465     416.403    -459.500
  C      297.734     415.646    -457.997
  O      298.124     416.021    -456.674
  C      297.250     416.871    -458.748
  O      296.427     417.709    -457.933
  C      298.577     417.500    -459.197
  N      298.414     418.401    -460.339
  C      297.783     419.615    -460.100
  O      297.370     419.895    -458.964
  N      297.584     420.484    -461.143
  C      297.931     420.133    -462.342
  N      297.685     421.020    -463.342
  C      298.564     418.830    -462.659
  C      298.784     418.032    -461.618
  O      301.439     412.268    -461.818
  O      301.414     412.052    -459.225
  H      296.905     417.879    -457.089
  H      300.878     412.292    -462.612
  H      298.823     418.581    -463.674
  H      299.254     417.062    -461.746
  H      299.030     418.075    -458.368
  H      296.665     416.569    -459.619
  H      296.988     414.846    -457.955
  H      299.801     414.946    -458.085
  H      297.223     421.891    -463.092
  H      298.431     413.204    -459.223
  H      297.863     420.837    -464.325
  H      297.988     414.369    -460.481
  P      297.548     415.197    -455.415
  C      299.499     413.591    -454.855
  O      298.196     413.735    -455.410
  O      296.066     415.260    -455.228
  O      298.293     415.905    -454.174
  H      297.641     415.999    -453.445
  H      299.803     412.567    -454.919
  H      299.486     413.896    -453.829
  H      300.188     414.202    -455.400

 6  7  8  9  10  11  12  13  14  15  16  26  30  31  32  33  35 0
 6-311+G(2d,p)
 ****
 37  38 0
 6-311+G(2d,p)
 ****
 1  2  3  4  5  17  18  19  20  21  22  23  24  25 0
 3-21G
 ****
 27  28  29  34  36  39  40  41  42  43  44  45  46 0
 3-21G
 ****


