%nproc=1
%NoSave
%Mem=1900MB
#P OB98/GEN NMR

erre ene a

0 1
  C      180.191     185.686     364.509
  O      181.051     184.757     363.856
  P      181.571     185.149     362.383
  C      179.922     183.552     361.145
  O      180.349     184.892     361.382
  C      178.867     183.520     360.042
  O      177.659     184.169     360.490
  C      179.265     184.248     358.762
  O      180.189     183.485     358.004
  C      177.905     184.432     358.109
  O      177.487     183.208     357.477
  C      177.005     184.737     359.321
  N      174.000     188.735     358.216
  C      173.959     187.439     357.814
  N      174.806     186.442     358.135
  C      175.771     186.883     358.965
  C      175.950     188.177     359.435
  C      175.003     189.130     359.031
  N      175.041     190.449     359.438
  N      177.066     188.251     360.246
  C      177.550     187.021     360.268
  N      176.798     186.161     359.522
  O      182.590     183.965     362.037
  O      182.213     186.494     362.284
  H      176.650     183.398     356.999
  H      183.333     184.291     361.497
  H      173.144     187.175     357.155
  H      178.427     186.719     360.817
  H      176.016     184.265     359.237
  H      177.896     185.218     357.338
  H      179.704     185.227     358.997
  H      178.631     182.470     359.821
  H      179.488     183.142     362.062
  H      174.418     191.096     358.982
  H      175.877     190.771     359.919
  H      180.791     182.947     360.873
  P      181.413     184.272     357.324
  C      180.452     183.966     354.957
  O      180.763     184.895     355.978
  O      182.298     183.062     356.752
  O      182.113     185.239     358.214
  H      181.765     182.418     356.262
  H      179.982     184.506     354.134
  H      179.756     183.207     355.323
  H      181.364     183.487     354.588
  H      179.921     185.306     365.472
  H      179.308     185.828     363.922
  H      180.698     186.621     364.623

 3  4  5  6  7  8  9  10  11  12  22  25  29  30  31  32 0
 6-311+G(2d,p)
 ****
 33  36  37 0
 6-311+G(2d,p)
 ****
 1  2  13  14  15  16  17  18  19  20  21  23  24  26 0
 3-21G
 ****
 27  28  34  35  38  39  40  41  42  43  44  45  46  47  48 0
 3-21G
 ****


