%nproc=1
%NoSave
%Mem=1900MB
#P OB98/GEN NMR

erre ene a

0 1
  C     -892.530    -814.471    -604.629
  O     -892.910    -815.006    -605.889
  H     -891.940    -813.572    -604.791
  H     -891.920    -815.194    -604.078
  H     -893.420    -814.212    -604.051
  P     -893.930    -816.237    -605.881
  C     -896.160    -815.004    -606.546
  O     -895.360    -815.606    -605.530
  C     -895.970    -813.491    -606.575
  O     -894.570    -813.213    -606.914
  C     -896.860    -812.766    -607.586
  O     -897.230    -811.497    -607.038
  C     -895.940    -812.553    -608.779
  O     -896.380    -811.471    -609.598
  C     -894.590    -812.327    -608.085
  N     -893.460    -812.596    -608.963
  C     -893.350    -811.787    -610.106
  O     -894.180    -810.902    -610.319
  N     -892.310    -812.020    -610.992
  C     -891.520    -813.011    -610.785
  N     -890.530    -813.209    -611.701
  C     -891.630    -813.922    -609.616
  C     -892.580    -813.653    -608.758
  O     -893.520    -817.000    -604.521
  O     -893.890    -817.101    -607.091
  H     -895.680    -811.245    -610.237
  H     -893.370    -816.391    -603.769
  H     -890.930    -814.748    -609.507
  H     -892.750    -814.267    -607.879
  H     -894.500    -811.306    -607.705
  H     -895.920    -813.453    -609.403
  H     -897.750    -813.333    -607.837
  H     -896.110    -813.091    -605.566
  H     -890.500    -812.555    -612.508
  H     -897.220    -815.237    -606.383
  H     -889.890    -813.977    -611.679
  H     -895.860    -815.450    -607.510
  P     -898.610    -811.369    -606.235
  C     -897.910    -810.097    -604.083
  O     -898.320    -811.343    -604.654
  O     -899.710    -812.276    -606.670
  O     -899.040    -809.834    -606.527
  H     -900.000    -809.822    -606.670
  H     -897.752    -810.221    -603.032
  H     -898.671    -809.363    -604.245
  H     -897.000    -809.775    -604.545

 6  7  8  9  10  11  12  13  14  15  16  26  30  31  32  33  35 0
 6-311+G(2d,p)
 ****
 37  38 0
 6-311+G(2d,p)
 ****
 1  2  3  4  5  17  18  19  20  21  22  23  24  25 0
 3-21G
 ****
 27  28  29  34  36  39  40  41  42  43  44  45  46 0
 3-21G
 ****


