%nproc=1
%NoSave
%Mem=1900MB
#P OB98/GEN NMR

erre ene a

0 1
  C      129.621    -582.014     536.143
  O      128.319    -581.908     536.674
  H      130.222    -582.633     536.812
  H      130.072    -581.016     536.087
  H      129.611    -582.471     535.150
  P      127.130    -581.442     535.711
  C      125.229    -579.708     535.915
  O      126.564    -580.044     536.267
  C      124.559    -578.838     536.983
  O      124.276    -579.630     538.159
  C      125.459    -577.695     537.448
  O      125.429    -576.532     536.641
  C      124.899    -577.407     538.846
  O      123.783    -576.508     538.774
  C      124.451    -578.789     539.319
  N      125.763    -579.655     544.179
  C      124.726    -578.886     543.686
  N      123.981    -578.221     544.598
  N      124.461    -578.772     542.408
  C      125.343    -579.421     541.610
  C      126.421    -580.202     541.987
  C      126.669    -580.363     543.406
  O      127.581    -581.029     543.896
  N      127.086    -580.693     540.895
  C      126.469    -580.159     539.863
  N      125.384    -579.400     540.245
  O      125.937    -582.459     536.064
  O      127.442    -581.468     534.243
  H      124.112    -575.630     538.499
  H      125.343    -582.550     535.299
  H      125.900    -579.731     545.174
  H      126.740    -580.310     538.822
  H      123.475    -578.742     539.830
  H      125.644    -576.935     539.487
  H      124.219    -578.188     545.578
  H      126.490    -578.042     537.559
  H      123.398    -577.452     544.268
  H      123.596    -578.469     536.603
  H      124.685    -580.646     535.804
  H      125.207    -579.200     534.944
  P      126.131    -575.186     537.143
  C      125.296    -573.040     538.367
  O      125.036    -574.377     537.991
  O      126.270    -574.335     535.795
  O      127.444    -575.377     537.819
  H      127.169    -574.448     535.421
  H      124.465    -572.658     538.923
  H      125.442    -572.445     537.490
  H      126.177    -573.005     538.973

 6  7  8  9  10  11  12  13  14  15  26  29  33  34 0
 6-311+G(2d,p)
 ****
 36  38  39  40  41 0
 6-311+G(2d,p)
 ****
 1  2  3  4  5  16  17  18  19  20  21  22  23  24  25 0
 3-21G
 ****
 27  28  30  31  32  35  37  42  43  44  45  46  47 0
 3-21G
 ****
 48  49 0
 3-21G
 ****


