%nproc=1
%NoSave
%Mem=1900MB
#P OB98/GEN NMR

erre ene a

0 1
  C     -288.981    -399.578     128.651
  O     -288.959    -399.312     127.263
  H     -287.974    -399.423     129.054
  H     -289.280    -400.611     128.840
  H     -289.671    -398.891     129.152
  P     -290.293    -399.580     126.412
  C     -289.124    -401.420     125.017
  O     -290.204    -401.092     125.881
  C     -289.537    -402.517     124.023
  O     -289.855    -403.727     124.766
  C     -290.780    -402.159     123.181
  O     -290.654    -402.826     121.919
  C     -291.891    -402.783     124.009
  O     -293.092    -402.866     123.283
  C     -291.212    -404.093     124.432
  N     -291.896    -404.735     125.548
  C     -292.672    -405.849     125.238
  O     -292.774    -406.235     124.066
  N     -293.348    -406.488     126.244
  C     -293.300    -406.011     127.455
  N     -294.003    -406.677     128.403
  C     -292.535    -404.793     127.816
  C     -291.856    -404.219     126.821
  O     -290.605    -398.565     125.363
  O     -291.447    -399.655     127.516
  H     -293.715    -403.503     123.701
  H     -291.971    -398.834     127.502
  H     -292.547    -404.433     128.834
  H     -291.266    -403.321     126.988
  H     -291.174    -404.795     123.590
  H     -292.103    -402.169     124.892
  H     -290.895    -401.080     123.028
  H     -288.679    -402.748     123.376
  H     -294.525    -407.495     128.108
  H     -288.301    -401.778     125.638
  H     -294.062    -406.396     129.376
  H     -288.797    -400.527     124.467
  P     -290.296    -402.059     120.561
  C     -292.736    -401.532     119.921
  O     -291.448    -400.995     120.217
  O     -289.951    -402.962     119.423
  O     -289.035    -401.128     120.933
  H     -288.464    -401.019     120.138
  H     -293.415    -400.733     119.709
  H     -293.092    -402.089     120.762
  H     -292.667    -402.176     119.070

 6  7  8  9  10  11  12  13  14  15  16  26  30  31  32  33  35 0
 6-311+G(2d,p)
 ****
 37  38 0
 6-311+G(2d,p)
 ****
 1  2  3  4  5  17  18  19  20  21  22  23  24  25 0
 3-21G
 ****
 27  28  29  34  36  39  40  41  42  43  44  45  46 0
 3-21G
 ****


