%nproc=1
%NoSave
%Mem=1900MB
#P OB98/GEN NMR

erre ene a

0 1
  C      250.394     627.361     278.497
  O      249.092     626.819     278.585
  H      250.367     628.395     278.856
  H      250.728     627.364     277.454
  H      251.102     626.803     279.109
  P      248.903     625.243     278.403
  C      246.704     625.764     277.156
  O      247.330     624.999     278.168
  C      245.304     625.231     276.847
  O      245.413     623.832     276.435
  C      244.340     625.284     278.035
  O      243.013     625.477     277.515
  C      244.482     623.892     278.611
  O      243.408     623.563     279.473
  C      244.594     623.063     277.330
  N      245.152     621.727     277.570
  C      244.308     620.809     278.191
  O      243.168     621.068     278.558
  N      244.846     619.570     278.416
  C      246.126     619.186     278.151
  O      246.564     618.071     278.404
  C      246.986     620.219     277.535
  C      246.465     621.418     277.278
  O      249.516     624.385     279.457
  O      249.519     624.929     276.957
  H      243.409     624.155     280.254
  H      249.881     624.025     276.931
  H      244.247     618.883     278.850
  H      248.015     619.954     277.322
  H      247.073     622.201     276.829
  H      243.613     622.929     276.860
  H      245.403     623.812     279.197
  H      244.579     626.075     278.751
  H      244.895     625.782     275.982
  H      247.336     625.715     276.251
  H      246.639     626.813     277.475
  P      241.985     626.531     278.144
  C      239.594     625.571     278.224
  O      240.549     626.317     277.471
  O      242.470     627.944     278.132
  O      241.760     626.022     279.658
  H      241.543     626.777     280.226
  H      238.681     625.498     277.670
  H      239.408     626.066     279.154
  H      239.976     624.589     278.412

 6  7  8  9  10  11  12  13  14  15  16  26  31  32  33  34  35 0
 6-311+G(2d,p)
 ****
 36  37 0
 6-311+G(2d,p)
 ****
 1  2  3  4  5  17  18  19  20  21  22  23  24  25 0
 3-21G
 ****
 27  28  29  30  38  39  40  41  42  43  44  45 0
 3-21G
 ****


