%nproc=1
%NoSave
%Mem=1900MB
#P OB98/GEN NMR

erre ene a

0 1
  C      397.045    -197.132    -226.845
  O      397.370    -198.481    -226.575
  H      397.509    -196.500    -226.083
  H      395.960    -196.993    -226.804
  H      397.420    -196.832    -227.828
  P      396.929    -199.562    -227.686
  C      394.829    -200.309    -226.290
  O      395.350    -199.765    -227.492
  C      393.440    -200.903    -226.525
  O      392.534    -199.829    -226.898
  C      393.396    -201.962    -227.634
  O      392.449    -202.965    -227.267
  C      392.875    -201.185    -228.836
  O      392.274    -202.049    -229.800
  C      391.923    -200.190    -228.160
  N      391.673    -199.014    -228.986
  C      390.581    -199.081    -229.856
  O      389.891    -200.107    -229.921
  N      390.311    -198.013    -230.686
  C      391.115    -196.986    -230.677
  N      390.805    -195.969    -231.536
  C      392.293    -196.890    -229.807
  C      392.505    -197.921    -228.988
  O      397.564    -200.907    -227.090
  O      397.366    -199.233    -229.074
  H      392.887    -202.794    -229.977
  H      397.414    -201.019    -226.135
  H      392.939    -196.018    -229.849
  H      393.359    -197.934    -228.306
  H      390.958    -200.668    -227.942
  H      393.702    -200.656    -229.320
  H      394.367    -202.423    -227.810
  H      393.069    -201.318    -225.577
  H      389.999    -196.096    -232.131
  H      394.770    -199.534    -225.515
  H      391.379    -195.149    -231.656
  H      395.522    -201.079    -225.945
  P      392.940    -204.274    -226.487
  C      392.091    -206.350    -227.790
  O      393.180    -205.465    -227.538
  O      392.148    -204.645    -225.279
  O      394.444    -203.875    -226.065
  H      394.590    -204.203    -225.157
  H      392.390    -207.089    -228.504
  H      391.262    -205.795    -228.177
  H      391.804    -206.831    -226.878

 6  7  8  9  10  11  12  13  14  15  16  26  30  31  32  33  35 0
 6-311+G(2d,p)
 ****
 37  38 0
 6-311+G(2d,p)
 ****
 1  2  3  4  5  17  18  19  20  21  22  23  24  25 0
 3-21G
 ****
 27  28  29  34  36  39  40  41  42  43  44  45  46 0
 3-21G
 ****


