%nproc=1
%NoSave
%Mem=1900MB
#P OB98/GEN NMR

erre ene a

0 1
  C       71.940    -365.849    -119.675
  O       73.294    -365.463    -119.792
  H       71.475    -365.790    -120.662
  H       71.405    -365.182    -118.995
  H       71.870    -366.882    -119.319
  P       74.175    -365.353    -118.453
  C       75.535    -367.478    -119.053
  O       74.623    -366.870    -118.151
  C       76.157    -368.719    -118.417
  O       75.156    -369.725    -118.152
  C       77.197    -369.428    -119.280
  O       78.438    -368.744    -119.348
  C       77.303    -370.750    -118.534
  O       78.080    -370.567    -117.339
  C       75.816    -371.021    -118.193
  N       75.160    -371.899    -119.162
  C       75.585    -373.233    -119.189
  O       76.470    -373.622    -118.426
  N       75.024    -374.088    -120.109
  C       74.130    -373.645    -120.939
  N       73.640    -374.525    -121.861
  C       73.642    -372.254    -120.934
  C       74.192    -371.443    -120.035
  O       73.546    -364.631    -117.306
  O       75.555    -364.701    -118.936
  H       77.487    -370.185    -116.668
  H       76.132    -364.601    -118.139
  H       72.900    -371.937    -121.653
  H       73.898    -370.401    -119.982
  H       75.720    -371.464    -117.193
  H       77.786    -371.538    -119.120
  H       76.803    -369.623    -120.283
  H       76.577    -368.421    -117.446
  H       74.033    -375.459    -121.861
  H       76.305    -366.740    -119.309
  H       73.168    -374.202    -122.697
  H       75.016    -367.781    -119.966
  P       79.383    -369.028    -120.613
  C       78.894    -366.772    -121.825
  O       78.780    -368.186    -121.840
  O       79.039    -370.543    -120.986
  O       80.849    -368.814    -120.388
  H       79.661    -371.163    -120.564
  H       78.445    -366.369    -122.708
  H       79.928    -366.498    -121.794
  H       78.395    -366.383    -120.962

 6  7  8  9  10  11  12  13  14  15  16  26  30  31  32  33  35 0
 6-311+G(2d,p)
 ****
 37  38 0
 6-311+G(2d,p)
 ****
 1  2  3  4  5  17  18  19  20  21  22  23  24  25 0
 3-21G
 ****
 27  28  29  34  36  39  40  41  42  43  44  45  46 0
 3-21G
 ****


