%nproc=1
%NoSave
%Mem=1900MB
#P OB98/GEN NMR

erre ene a

0 1
  C      -97.143       0.930      63.901
  O      -95.789       0.728      64.311
  P      -95.079      -0.608      63.772
  C      -93.925      -0.551      66.092
  O      -93.823      -0.919      64.724
  C      -93.009      -1.407      66.972
  O      -93.437      -2.801      66.970
  C      -91.541      -1.392      66.535
  O      -90.747      -1.478      67.727
  C      -91.407      -2.688      65.757
  O      -90.043      -3.083      65.627
  C      -92.283      -3.597      66.617
  N      -90.939      -8.361      65.621
  C      -90.240      -7.353      66.254
  N      -89.021      -7.676      66.740
  N      -90.695      -6.136      66.402
  C      -91.944      -5.969      65.902
  C      -92.743      -6.890      65.267
  C      -92.214      -8.226      65.082
  O      -92.794      -9.154      64.533
  N      -93.964      -6.350      64.930
  C      -93.861      -5.087      65.305
  N      -92.684      -4.820      65.945
  O      -94.411      -0.135      62.397
  O      -96.023      -1.747      63.569
  H      -89.661      -3.122      66.530
  H      -94.963      -0.413      61.642
  H      -90.535      -9.276      65.520
  H      -94.617      -4.333      65.158
  H      -91.779      -3.905      67.543
  H      -91.831      -2.571      64.752
  H      -88.632      -8.608      66.704
  H      -91.250      -0.514      65.950
  H      -88.505      -6.967      67.245
  H      -93.091      -1.044      68.004
  H      -94.957      -0.665      66.432
  H      -93.688       0.514      66.193
  P      -90.360      -0.114      68.468
  C      -87.828      -0.611      68.657
  O      -89.048      -0.397      69.339
  O      -91.514       0.039      69.570
  O      -90.310       1.087      67.579
  H      -91.767       0.979      69.650
  H      -87.002      -0.326      69.314
  H      -87.767      -0.021      67.740
  H      -87.733      -1.671      68.410
  H      -97.509       1.845      64.318
  H      -97.745       0.115      64.245
  H      -97.189       0.981      62.833

 3  4  5  6  7  8  9  10  11  12  23  26  30  31 0
 6-311+G(2d,p)
 ****
 33  35  36  37  38 0
 6-311+G(2d,p)
 ****
 1  2  13  14  15  16  17  18  19  20  21  22  24  25 0
 3-21G
 ****
 27  28  29  32  34  39  40  41  42  43  44  45  46  47  48  49 0
 3-21G
 ****


