%nproc=1
%NoSave
%Mem=1900MB
#P OB98/GEN NMR

erre ene a

0 1
  C      334.070     129.298     481.434
  O      334.305     128.369     482.496
  P      335.693     128.432     483.291
  C      336.553     126.050     483.775
  O      335.779     127.141     484.251
  C      336.789     125.027     484.885
  O      337.286     125.653     486.082
  C      335.524     124.302     485.314
  O      335.146     123.336     484.337
  C      335.930     123.734     486.656
  O      336.681     122.503     486.499
  C      336.855     124.836     487.200
  N      336.222     125.653     488.233
  C      336.629     125.393     489.554
  O      337.446     124.494     489.783
  N      336.095     126.148     490.573
  C      335.230     127.073     490.294
  N      334.731     127.787     491.342
  C      334.776     127.369     488.924
  C      335.306     126.626     487.950
  O      336.002     129.742     483.951
  O      336.780     128.088     482.156
  H      337.183     122.386     487.337
  H      337.614     128.539     482.376
  H      334.049     128.164     488.744
  H      335.014     126.779     486.917
  H      337.774     124.399     487.637
  H      335.077     123.497     487.287
  H      334.706     125.024     485.452
  H      337.534     124.305     484.534
  H      335.062     127.559     492.275
  H      337.510     126.412     483.400
  H      334.091     128.565     491.224
  H      336.028     125.600     482.921
  P      334.274     123.843     483.088
  C      332.577     121.910     482.817
  O      333.728     122.547     482.306
  O      335.401     124.425     482.086
  O      333.247     124.894     483.410
  H      335.040     125.185     481.601
  H      332.155     121.279     482.033
  H      331.817     122.623     483.129
  H      332.856     121.279     483.664
  H      333.103     129.120     481.012
  H      334.817     129.173     480.678
  H      334.114     130.296     481.817

 3  4  5  6  7  8  9  10  11  12  13  23  27  28  29  30  32 0
 6-311+G(2d,p)
 ****
 34  35 0
 6-311+G(2d,p)
 ****
 1  2  14  15  16  17  18  19  20  21  22  24  25  26 0
 3-21G
 ****
 31  33  36  37  38  39  40  41  42  43  44  45  46 0
 3-21G
 ****


