%nproc=1
%NoSave
%Mem=1900MB
#P OB98/GEN NMR

erre ene a

0 1
  C       46.977    -711.258      74.497
  O       47.828    -712.386      74.549
  P       49.248    -712.277      75.285
  C       51.080    -713.899      76.081
  O       49.745    -713.773      75.603
  C       51.175    -715.033      77.105
  O       50.419    -714.696      78.292
  C       50.609    -716.357      76.617
  O       51.505    -716.993      75.725
  C       50.392    -717.084      77.940
  O       51.624    -717.672      78.401
  C       49.962    -715.938      78.865
  N       46.005    -718.237      81.118
  C       47.295    -718.609      80.961
  N       48.279    -717.958      80.318
  C       47.819    -716.814      79.773
  C       46.517    -716.327      79.814
  C       45.591    -717.080      80.552
  N       44.289    -716.678      80.771
  N       46.435    -715.142      79.110
  C       47.648    -714.933      78.640
  N       48.528    -715.883      79.072
  O       49.297    -711.341      76.444
  O       50.242    -711.805      74.130
  H       51.416    -718.167      79.219
  H       50.633    -710.948      74.370
  H       47.573    -719.545      81.438
  H       47.939    -714.108      78.011
  H       50.428    -716.019      79.857
  H       49.660    -717.896      77.859
  H       49.636    -716.191      76.135
  H       52.229    -715.140      77.396
  H       51.376    -712.951      76.542
  H       43.745    -717.223      81.429
  H       44.052    -715.699      80.618
  H       51.751    -714.096      75.233
  P       50.945    -717.976      74.598
  C       51.571    -718.586      72.185
  O       51.879    -717.777      73.297
  O       49.475    -717.891      74.335
  O       51.364    -719.429      75.113
  H       50.701    -720.082      74.829
  H       51.954    -719.600      72.345
  H       52.055    -718.157      71.297
  H       50.492    -718.620      72.010
  H       46.080    -711.512      73.972
  H       47.474    -710.459      73.988
  H       46.733    -710.949      75.492

 3  4  5  6  7  8  9  10  11  12  22  25  29  30  31  32 0
 6-311+G(2d,p)
 ****
 33  36  37 0
 6-311+G(2d,p)
 ****
 1  2  13  14  15  16  17  18  19  20  21  23  24  26 0
 3-21G
 ****
 27  28  34  35  38  39  40  41  42  43  44  45  46  47  48 0
 3-21G
 ****


