%nproc=1
%NoSave
%Mem=1900MB
#P OB98/GEN NMR

erre ene a

0 1
  C      202.937    -149.292    -336.911
  O      203.728    -148.104    -336.795
  P      204.478    -147.536    -338.094
  C      204.482    -145.064    -337.366
  O      205.273    -146.201    -337.690
  C      205.285    -144.065    -336.518
  O      205.520    -144.599    -335.183
  C      206.665    -143.755    -337.129
  O      207.044    -142.399    -336.848
  C      207.593    -144.667    -336.348
  O      208.947    -144.219    -336.403
  C      206.945    -144.607    -334.959
  N      210.842    -147.104    -332.756
  C      210.804    -145.965    -333.481
  N      209.723    -145.350    -334.018
  C      208.598    -146.023    -333.729
  C      208.483    -147.194    -332.996
  C      209.675    -147.749    -332.501
  N      209.719    -148.927    -331.787
  N      207.166    -147.594    -332.907
  C      206.499    -146.705    -333.629
  N      207.316    -145.718    -334.112
  O      203.642    -147.430    -339.327
  O      205.668    -148.597    -338.299
  H      209.411    -144.609    -335.642
  H      205.760    -148.795    -339.256
  H      211.760    -145.492    -333.661
  H      205.435    -146.737    -333.828
  H      207.206    -143.681    -334.435
  H      207.549    -145.685    -336.761
  H      206.732    -143.925    -338.212
  H      204.698    -143.143    -336.404
  H      203.591    -145.383    -336.817
  H      210.630    -149.308    -331.576
  H      208.888    -149.492    -331.719
  H      204.123    -144.605    -338.292
  P      206.850    -141.350    -338.055
  C      206.708    -139.339    -336.383
  O      207.353    -139.939    -337.486
  O      205.477    -141.373    -338.646
  O      207.996    -141.796    -339.078
  H      208.880    -141.902    -338.675
  H      207.277    -138.459    -336.076
  H      206.659    -140.031    -335.541
  H      205.695    -139.021    -336.665
  H      202.510    -149.531    -335.959
  H      203.555    -150.102    -337.238
  H      202.154    -149.131    -337.623

 3  4  5  6  7  8  9  10  11  12  22  25  29  30  31  32 0
 6-311+G(2d,p)
 ****
 33  36  37 0
 6-311+G(2d,p)
 ****
 1  2  13  14  15  16  17  18  19  20  21  23  24  26 0
 3-21G
 ****
 27  28  34  35  38  39  40  41  42  43  44  45  46  47  48 0
 3-21G
 ****


