%nproc=1
%NoSave
%Mem=1900MB
#P OB98/GEN NMR

erre ene a

0 1
  C      219.801      54.027     127.348
  O      218.685      54.901     127.249
  P      217.331      54.489     128.002
  C      216.297      53.586     125.801
  O      216.659      53.305     127.146
  C      215.615      52.380     125.151
  O      216.561      51.280     125.083
  C      214.377      51.868     125.900
  O      213.466      51.361     124.919
  C      214.926      50.709     126.715
  O      213.905      49.798     127.113
  C      215.946      50.142     125.730
  N      217.066      45.494     127.540
  C      215.975      45.971     126.905
  N      215.751      47.223     126.453
  C      216.801      48.018     126.715
  C      217.968      47.680     127.384
  C      218.087      46.344     127.805
  N      219.202      45.852     128.442
  N      218.803      48.774     127.485
  C      218.152      49.753     126.890
  N      216.953      49.336     126.388
  O      216.378      55.743     127.716
  O      217.466      54.229     129.463
  H      213.253      50.285     127.650
  H      216.214      56.234     128.545
  H      215.179      45.251     126.734
  H      218.507      50.771     126.797
  H      215.474      49.527     124.954
  H      215.413      51.089     127.620
  H      213.886      52.623     126.521
  H      215.353      52.647     124.118
  H      217.201      53.823     125.234
  H      219.272      44.856     128.590
  H      220.040      46.424     128.476
  H      215.632      54.454     125.774
  P      211.917      51.723     125.111
  C      211.266      49.211     125.121
  O      211.229      50.451     125.798
  O      211.343      51.704     123.614
  O      211.677      53.038     125.775
  H      210.579      52.305     123.541
  H      211.327      48.407     125.859
  H      212.130      49.141     124.450
  H      210.349      49.091     124.538
  H      220.623      54.434     126.798
  H      219.541      53.070     126.945
  H      220.079      53.918     128.376

 3  4  5  6  7  8  9  10  11  12  22  25  29  30  31  32 0
 6-311+G(2d,p)
 ****
 33  36  37 0
 6-311+G(2d,p)
 ****
 1  2  13  14  15  16  17  18  19  20  21  23  24  26 0
 3-21G
 ****
 27  28  34  35  38  39  40  41  42  43  44  45  46  47  48 0
 3-21G
 ****


