%nproc=1
%NoSave
%Mem=1900MB
#P OB98/GEN NMR

erre ene a

0 1
  C       22.465       7.781     -26.400
  O       23.406       8.678     -26.956
  H       22.761       6.753     -26.617
  H       22.446       7.922     -25.316
  H       21.466       7.975     -26.799
  P       23.467       8.760     -28.557
  C       23.543      11.355     -28.432
  O       24.167      10.166     -28.896
  C       24.178      11.813     -27.119
  O       25.620      11.855     -27.287
  C       23.721      13.205     -26.672
  O       23.575      13.209     -25.251
  C       24.877      14.103     -27.077
  O       24.939      15.289     -26.293
  C       26.067      13.166     -26.892
  N       29.799      16.620     -27.338
  C       28.876      16.408     -26.376
  N       27.918      15.458     -26.331
  C       28.005      14.648     -27.400
  C       28.890      14.740     -28.461
  C       29.819      15.793     -28.410
  N       30.739      16.039     -29.403
  N       28.641      13.744     -29.387
  C       27.625      13.066     -28.891
  N       27.205      13.577     -27.695
  O       21.930       9.001     -28.945
  O       24.038       7.568     -29.246
  H       25.568      15.907     -26.720
  H       21.451       8.152     -28.916
  H       28.906      17.095     -25.535
  H       27.155      12.211     -29.357
  H       26.406      13.118     -25.849
  H       24.769      14.393     -28.128
  H       22.782      13.511     -27.135
  H       23.971      11.061     -26.349
  H       22.478      11.159     -28.274
  H       31.329      16.850     -29.311
  H       30.728      15.471     -30.237
  H       23.654      12.138     -29.189
  P       22.128      13.595     -24.675
  C       22.323      11.832     -22.785
  O       22.070      13.187     -23.124
  O       21.154      12.540     -25.382
  O       21.720      15.000     -24.977
  H       20.393      13.002     -25.779
  H       22.250      11.710     -21.724
  H       23.306      11.561     -23.109
  H       21.603      11.204     -23.266

 6  7  8  9  10  11  12  13  14  15  25  28  32  33  34  35 0
 6-311+G(2d,p)
 ****
 36  39  40 0
 6-311+G(2d,p)
 ****
 1  2  3  4  5  16  17  18  19  20  21  22  23  24 0
 3-21G
 ****
 26  27  29  30  31  37  38  41  42  43  44  45  46  47 0
 3-21G
 ****
 48 0
 3-21G
 ****


