%nproc=1
%NoSave
%Mem=1900MB
#P OB98/GEN NMR

erre ene a

0 1
  C     -499.659      20.871    -411.990
  O     -500.781      21.586    -411.414
  P     -502.216      20.975    -411.609
  C     -503.267      22.584    -413.379
  O     -502.742      21.275    -413.101
  C     -503.019      22.953    -414.837
  O     -503.322      21.865    -415.731
  C     -503.869      24.117    -415.326
  O     -503.280      25.362    -414.950
  C     -503.784      23.949    -416.833
  O     -502.535      24.454    -417.316
  C     -503.812      22.422    -416.977
  N     -507.461      21.715    -420.528
  C     -506.249      22.318    -420.579
  N     -505.350      22.489    -419.591
  C     -505.802      21.925    -418.442
  C     -506.995      21.271    -418.254
  C     -507.863      21.190    -419.349
  N     -509.097      20.561    -419.280
  N     -507.109      20.852    -416.932
  C     -505.973      21.225    -416.366
  N     -505.159      21.893    -417.237
  O     -503.145      21.916    -410.704
  O     -502.332      19.535    -411.190
  H     -502.617      24.556    -418.288
  H     -503.871      21.386    -410.303
  H     -505.973      22.720    -421.555
  H     -505.702      21.029    -415.337
  H     -503.157      22.044    -417.783
  H     -504.577      24.477    -417.359
  H     -504.906      24.027    -414.988
  H     -501.952      23.183    -414.959
  H     -502.797      23.315    -412.711
  H     -509.669      20.511    -420.124
  H     -509.410      20.155    -418.404
  H     -504.331      22.595    -413.153
  P     -503.875      26.079    -413.629
  C     -504.639      28.170    -414.961
  O     -505.010      27.083    -414.150
  O     -502.671      27.048    -413.168
  O     -504.280      25.129    -412.544
  H     -502.679      27.158    -412.193
  H     -505.525      28.559    -415.479
  H     -503.899      27.871    -415.716
  H     -504.216      28.982    -414.325
  H     -498.753      21.400    -411.779
  H     -499.790      20.796    -413.049
  H     -499.606      19.890    -411.566

 3  4  5  6  7  8  9  10  11  12  22  25  29  30  31  32 0
 6-311+G(2d,p)
 ****
 33  36  37 0
 6-311+G(2d,p)
 ****
 1  2  13  14  15  16  17  18  19  20  21  23  24  26 0
 3-21G
 ****
 27  28  34  35  38  39  40  41  42  43  44  45  46  47  48 0
 3-21G
 ****


