%nproc=1
%NoSave
%Mem=1900MB
#P OB98/GEN NMR

erre ene a

0 1
  C      668.427     356.064     380.480
  O      667.510     355.406     379.604
  P      666.572     354.247     380.195
  C      666.665     352.678     378.152
  O      665.844     353.516     378.966
  C      665.867     352.125     376.970
  O      664.747     351.332     377.413
  C      665.271     353.209     376.089
  O      666.272     353.810     375.287
  C      664.212     352.428     375.324
  O      664.793     351.723     374.210
  C      663.726     351.418     376.387
  N      662.431     351.768     376.957
  C      661.386     351.939     376.037
  O      661.598     351.838     374.827
  N      660.135     352.241     376.511
  C      659.944     352.360     377.791
  N      658.683     352.662     378.208
  C      661.020     352.202     378.791
  C      662.228     351.910     378.301
  O      665.674     354.656     381.317
  O      667.633     353.143     380.676
  H      665.156     352.415     373.613
  H      667.258     352.655     381.435
  H      660.808     352.302     379.848
  H      663.072     351.779     378.974
  H      663.645     350.413     375.952
  H      663.436     353.080     374.924
  H      664.786     353.967     376.714
  H      666.533     351.485     376.380
  H      657.966     352.774     377.502
  H      667.056     351.856     378.753
  H      658.422     352.723     379.181
  H      667.528     353.258     377.808
  P      666.072     355.352     374.881
  C      667.404     355.441     372.664
  O      667.350     355.804     374.024
  O      666.283     356.115     376.283
  O      664.743     355.680     374.287
  H      665.706     356.896     376.315
  H      668.144     356.075     372.160
  H      666.437     355.573     372.169
  H      667.722     354.399     372.575
  H      668.973     356.805     379.934
  H      669.109     355.347     380.887
  H      667.886     356.534     381.275

 3  4  5  6  7  8  9  10  11  12  13  23  27  28  29  30  32 0
 6-311+G(2d,p)
 ****
 34  35 0
 6-311+G(2d,p)
 ****
 1  2  14  15  16  17  18  19  20  21  22  24  25  26 0
 3-21G
 ****
 31  33  36  37  38  39  40  41  42  43  44  45  46 0
 3-21G
 ****


