%nproc=1
%NoSave
%Mem=1900MB
#P OB98/GEN NMR

erre ene a

0 1
  C      271.836    -370.209     -51.969
  O      271.338    -371.033     -52.997
  P      271.167    -370.563     -54.508
  C      273.322    -371.324     -55.781
  O      272.623    -370.275     -55.121
  C      274.362    -370.761     -56.758
  O      273.693    -369.851     -57.667
  C      275.445    -369.948     -56.025
  O      276.763    -370.172     -56.511
  C      274.904    -368.527     -56.095
  O      275.898    -367.533     -55.899
  C      274.215    -368.521     -57.456
  N      272.913    -363.630     -57.912
  C      274.156    -364.215     -58.051
  N      275.205    -363.364     -58.129
  N      274.350    -365.509     -58.059
  C      273.220    -366.226     -57.853
  C      271.935    -365.758     -57.707
  C      271.732    -364.329     -57.734
  O      270.667    -363.765     -57.508
  N      271.052    -366.772     -57.450
  C      271.803    -367.854     -57.397
  N      273.136    -367.564     -57.604
  O      270.082    -369.574     -54.785
  O      270.764    -371.951     -55.235
  H      275.492    -366.666     -56.099
  H      270.145    -371.724     -55.957
  H      272.837    -362.622     -57.834
  H      271.450    -368.852     -57.186
  H      274.921    -368.305     -58.262
  H      274.174    -368.411     -55.286
  H      275.103    -362.374     -57.980
  H      275.506    -370.253     -54.976
  H      276.132    -363.760     -57.976
  H      274.782    -371.579     -57.351
  H      272.563    -371.901     -56.324
  H      273.791    -371.990     -55.052
  P      278.110    -370.382     -55.681
  C      278.273    -372.945     -55.697
  O      278.023    -371.790     -54.919
  O      278.031    -369.325     -54.485
  O      279.363    -370.181     -56.467
  H      278.916    -368.938     -54.330
  H      277.918    -373.818     -55.145
  H      279.344    -373.042     -55.873
  H      277.744    -372.884     -56.657
  H      271.853    -370.756     -51.050
  H      271.205    -369.351     -51.862
  H      272.828    -369.893     -52.214

 3  4  5  6  7  8  9  10  11  12  23  26  30  31 0
 6-311+G(2d,p)
 ****
 33  35  36  37  38 0
 6-311+G(2d,p)
 ****
 1  2  13  14  15  16  17  18  19  20  21  22  24  25 0
 3-21G
 ****
 27  28  29  32  34  39  40  41  42  43  44  45  46  47  48  49 0
 3-21G
 ****


