%nproc=1
%NoSave
%Mem=1900MB
#P OB98/GEN NMR

erre ene a

0 1
  C       58.533      76.705     405.547
  O       58.942      75.779     404.539
  P       59.357      74.289     404.971
  C       61.853      74.680     405.500
  O       60.568      74.383     406.027
  C       62.957      74.301     406.501
  O       64.276      74.482     405.902
  C       62.920      75.166     407.773
  O       63.345      74.405     408.913
  C       63.977      76.218     407.496
  O       64.442      76.827     408.700
  C       65.017      75.385     406.746
  N       68.931      78.698     406.876
  C       68.301      78.008     407.859
  N       67.280      77.128     407.745
  C       66.928      76.971     406.458
  C       67.482      77.594     405.346
  C       68.527      78.503     405.593
  N       69.146      79.226     404.602
  N       66.850      77.193     404.186
  C       65.901      76.374     404.594
  N       65.926      76.184     405.953
  O       59.571      73.327     403.853
  O       58.130      73.833     405.897
  H       65.218      77.364     408.471
  H       57.903      72.905     405.691
  H       68.661      78.193     408.864
  H       65.166      75.906     403.954
  H       65.620      74.782     407.432
  H       63.556      77.004     406.851
  H       61.940      75.611     407.989
  H       62.857      73.241     406.758
  H       61.915      75.743     405.259
  H       69.806      79.933     404.883
  H       68.756      79.205     403.669
  H       61.983      74.153     404.544
  P       62.173      73.884     409.892
  C       62.240      75.899     411.558
  O       61.540      75.199     410.554
  O       62.619      72.813     410.838
  O       61.068      73.393     408.843
  H       60.843      74.040     408.150
  H       61.710      76.823     411.786
  H       63.253      76.151     411.227
  H       62.292      75.295     412.474
  H       58.293      77.644     405.093
  H       59.328      76.842     406.250
  H       57.671      76.323     406.054

 3  4  5  6  7  8  9  10  11  12  22  25  29  30  31  32 0
 6-311+G(2d,p)
 ****
 33  36  37 0
 6-311+G(2d,p)
 ****
 1  2  13  14  15  16  17  18  19  20  21  23  24  26 0
 3-21G
 ****
 27  28  34  35  38  39  40  41  42  43  44  45  46  47  48 0
 3-21G
 ****


