%nproc=1
%NoSave
%Mem=1900MB
#P OB98/GEN NMR

erre ene a

0 1
  C      148.284     141.276     359.761
  O      147.553     142.258     360.489
  P      147.863     143.802     360.151
  C      149.173     144.492     362.297
  O      149.222     144.175     360.907
  C      150.531     145.001     362.773
  O      151.541     143.991     362.565
  C      151.039     146.236     362.036
  O      150.365     147.405     362.471
  C      152.516     146.187     362.390
  O      152.728     146.691     363.721
  C      152.806     144.674     362.344
  N      157.151     143.823     359.766
  C      156.924     144.293     361.018
  N      155.739     144.512     361.623
  C      154.719     144.184     360.807
  C      154.801     143.718     359.503
  C      156.089     143.529     358.982
  N      156.324     143.050     357.709
  N      153.540     143.516     358.979
  C      152.710     143.852     359.951
  N      153.373     144.250     361.075
  O      146.745     144.583     360.989
  O      147.820     144.144     358.697
  H      152.488     147.644     363.714
  H      146.455     145.385     360.517
  H      157.804     144.523     361.604
  H      151.634     143.810     359.879
  H      153.494     144.356     363.139
  H      153.146     146.781     361.710
  H      150.908     146.119     360.953
  H      150.466     145.203     363.851
  H      148.913     143.594     362.865
  H      157.269     143.091     357.360
  H      155.532     142.981     357.076
  H      148.395     145.242     362.463
  P      149.676     148.321     361.345
  C      151.765     149.826     361.342
  O      150.935     148.979     360.568
  O      149.131     149.552     362.221
  O      148.676     147.625     360.491
  H      149.805     149.899     362.823
  H      152.592     150.158     360.715
  H      152.170     149.289     362.202
  H      151.204     150.702     361.680
  H      147.985     140.299     360.080
  H      149.331     141.405     359.941
  H      148.086     141.386     358.715

 3  4  5  6  7  8  9  10  11  12  22  25  29  30  31  32 0
 6-311+G(2d,p)
 ****
 33  36  37 0
 6-311+G(2d,p)
 ****
 1  2  13  14  15  16  17  18  19  20  21  23  24  26 0
 3-21G
 ****
 27  28  34  35  38  39  40  41  42  43  44  45  46  47  48 0
 3-21G
 ****


