%nproc=1
%NoSave
%Mem=1900MB
#P OB98/GEN NMR

erre ene a

0 1
  C     -777.145     478.393    -893.030
  O     -775.802     478.609    -892.700
  P     -774.833     477.365    -892.340
  C     -773.678     477.559    -894.640
  O     -774.408     476.703    -893.740
  C     -772.181     477.223    -894.550
  O     -771.935     475.838    -894.910
  C     -771.322     478.017    -895.530
  O     -771.230     479.411    -895.310
  C     -770.025     477.223    -895.480
  O     -769.227     477.567    -894.340
  C     -770.550     475.765    -895.370
  N     -770.452     475.034    -896.620
  C     -769.674     473.868    -896.570
  O     -769.120     473.464    -895.560
  N     -769.540     473.191    -897.760
  C     -770.060     473.590    -898.960
  O     -769.869     472.946    -900.000
  C     -770.841     474.821    -898.960
  C     -771.003     475.481    -897.810
  O     -775.392     476.410    -891.340
  O     -773.480     478.079    -891.880
  H     -769.063     478.515    -894.370
  H     -773.063     478.650    -892.550
  H     -768.974     472.360    -897.760
  H     -771.282     475.158    -899.900
  H     -771.577     476.405    -897.770
  H     -769.995     475.220    -894.600
  H     -769.395     477.407    -896.370
  H     -771.746     477.893    -896.530
  H     -771.848     477.357    -893.510
  H     -773.834     478.595    -894.350
  H     -774.056     477.416    -895.670
  P     -770.732     480.440    -896.450
  C     -773.051     481.381    -897.200
  O     -771.919     480.600    -897.530
  O     -769.343     480.260    -896.970
  O     -770.822     481.852    -895.660
  H     -770.145     482.453    -896.010
  H     -773.772     481.335    -898.020
  H     -772.760     482.421    -897.020
  H     -773.536     480.969    -896.290
  H     -777.617     479.331    -893.234
  H     -777.641     477.915    -892.211
  H     -777.203     477.768    -893.897

 3  4  5  6  7  8  9  10  11  12  13  23  28  29  30  31  32 0
 6-311+G(2d,p)
 ****
 33  34 0
 6-311+G(2d,p)
 ****
 1  2  14  15  16  17  18  19  20  21  22  24  25  26  27 0
 3-21G
 ****
 35  36  37  38  39  40  41  42  43  44  45 0
 3-21G
 ****


