%nproc=1
%NoSave
%Mem=1900MB
#P OB98/GEN NMR

erre ene a

0 1
  C       73.509     -49.856    -104.024
  O       74.059     -48.556    -104.111
  H       72.481     -49.828    -104.393
  H       73.501     -50.192    -102.983
  H       74.088     -50.552    -104.636
  P       75.553     -48.377    -103.555
  C       74.690     -47.680    -101.213
  O       75.472     -48.595    -101.967
  C       74.419     -48.233     -99.816
  O       73.861     -49.563     -99.893
  C       75.654     -48.325     -98.926
  O       75.925     -47.080     -98.305
  C       75.223     -49.396     -97.934
  O       74.368     -48.839     -96.912
  C       74.440     -50.367     -98.828
  N       76.466     -54.901     -97.920
  C       75.784     -54.045     -97.079
  N       75.642     -54.442     -95.795
  N       75.292     -52.894     -97.456
  C       75.559     -52.600     -98.750
  C       76.225     -53.360     -99.683
  C       76.716     -54.656     -99.264
  O       77.255     -55.493     -99.982
  N       76.276     -52.725    -100.898
  C       75.672     -51.571    -100.689
  N       75.224     -51.445     -99.399
  O       75.819     -46.803    -103.697
  O       76.601     -49.166    -104.265
  H       73.498     -48.639     -97.299
  H       76.747     -46.665    -103.965
  H       76.795     -55.787     -97.583
  H       75.526     -50.802    -101.436
  H       73.608     -50.836     -98.291
  H       76.078     -49.830     -97.415
  H       76.232     -55.151     -95.386
  H       76.522     -48.684     -99.493
  H       75.206     -53.781     -95.165
  H       73.657     -47.593     -99.352
  H       73.739     -47.518    -101.731
  H       75.223     -46.728    -101.137
  P       77.454     -46.622     -98.164
  C       77.249     -47.008     -95.605
  O       78.020     -47.208     -96.781
  O       77.331     -45.050     -97.884
  O       78.297     -46.886     -99.366
  H       77.580     -44.550     -98.684
  H       77.751     -47.451     -94.770
  H       76.288     -47.463     -95.727
  H       77.127     -45.959     -95.432

 6  7  8  9  10  11  12  13  14  15  26  29  33  34 0
 6-311+G(2d,p)
 ****
 36  38  39  40  41 0
 6-311+G(2d,p)
 ****
 1  2  3  4  5  16  17  18  19  20  21  22  23  24  25 0
 3-21G
 ****
 27  28  30  31  32  35  37  42  43  44  45  46  47 0
 3-21G
 ****
 48  49 0
 3-21G
 ****


