%nproc=1
%NoSave
%Mem=1900MB
#P OB98/GEN NMR

erre ene a

0 1
  C      298.653      29.180    -130.132
  O      297.678      28.219    -130.500
  P      296.548      27.857    -129.417
  C      294.765      29.214    -128.105
  O      295.919      29.252    -128.934
  C      294.873      30.215    -126.953
  O      295.916      29.781    -126.048
  C      295.194      31.646    -127.395
  O      294.474      32.538    -126.544
  C      296.677      31.779    -127.110
  O      297.059      33.139    -126.923
  C      296.822      30.886    -125.866
  N      298.195      30.426    -125.673
  C      299.138      31.390    -125.307
  O      298.814      32.575    -125.236
  N      300.431      30.994    -125.080
  C      300.779      29.766    -125.306
  N      302.071      29.422    -125.063
  C      299.839      28.745    -125.814
  C      298.573      29.134    -125.953
  O      297.406      27.381    -128.153
  O      295.570      26.821    -129.860
  H      297.052      33.580    -127.801
  H      296.929      26.698    -127.646
  H      300.189      27.743    -126.022
  H      297.811      28.448    -126.297
  H      296.509      31.428    -124.963
  H      297.258      31.368    -127.945
  H      294.930      31.836    -128.440
  H      293.929      30.196    -126.394
  H      302.699      30.143    -124.730
  H      294.665      28.213    -127.678
  H      302.431      28.488    -125.212
  H      293.876      29.415    -128.709
  P      294.141      34.000    -127.113
  C      292.687      34.821    -129.064
  O      293.420      33.740    -128.524
  O      295.590      34.501    -127.583
  O      293.501      34.988    -126.198
  H      295.535      35.418    -127.900
  H      292.369      34.556    -130.076
  H      293.308      35.720    -129.113
  H      291.797      35.009    -128.456
  H      299.337      29.322    -130.942
  H      299.187      28.835    -129.271
  H      298.171      30.108    -129.905

 3  4  5  6  7  8  9  10  11  12  13  21  23  27  28  29  30  32 0
 6-311+G(2d,p)
 ****
 34  35 0
 6-311+G(2d,p)
 ****
 1  2  14  15  16  17  18  19  20  22  24  25  26 0
 3-21G
 ****
 31  33  36  37  38  39  40  41  42  43  44  45  46 0
 3-21G
 ****


