%nproc=1
%NoSave
%Mem=1900MB
#P OB98/GEN NMR

erre ene a

0 1
  C      703.169     254.510       2.939
  O      704.266     253.826       2.338
  P      705.201     254.676       1.344
  C      705.478     252.729      -0.340
  O      706.127     253.651       0.516
  C      706.394     252.304      -1.503
  O      706.973     253.481      -2.149
  C      707.552     251.407      -1.074
  O      707.820     250.501      -2.157
  C      708.713     252.378      -0.961
  O      709.976     251.709      -1.014
  C      708.405     253.311      -2.131
  N      712.227     256.203      -3.895
  C      711.811     254.957      -4.221
  N      710.800     254.246      -3.692
  C      710.153     254.973      -2.748
  C      710.471     256.248      -2.308
  C      711.562     256.877      -2.928
  N      712.009     258.129      -2.573
  N      709.615     256.638      -1.293
  C      708.801     255.611      -1.133
  N      709.069     254.597      -2.007
  O      706.226     255.404       2.338
  O      704.450     255.669       0.518
  H      709.999     251.055      -0.288
  H      706.023     256.354       2.392
  H      712.375     254.465      -5.009
  H      708.010     255.550      -0.391
  H      708.714     252.885      -3.101
  H      708.647     252.917      -0.014
  H      707.386     250.854      -0.147
  H      705.781     251.794      -2.256
  H      704.562     253.169      -0.744
  H      712.828     258.493      -3.049
  H      711.558     258.615      -1.820
  H      705.161     251.864       0.247
  P      707.507     248.954      -1.885
  C      709.897     248.167      -2.505
  O      708.513     248.122      -2.800
  O      706.078     248.732      -2.578
  O      707.490     248.583      -0.440
  H      705.615     247.992      -2.161
  H      710.318     247.162      -2.642
  H      710.090     248.502      -1.478
  H      710.390     248.851      -3.201
  H      702.632     253.835       3.573
  H      702.516     254.878       2.175
  H      703.535     255.330       3.520

 3  4  5  6  7  8  9  10  11  12  22  25  29  30  31  32 0
 6-311+G(2d,p)
 ****
 33  36  37 0
 6-311+G(2d,p)
 ****
 1  2  13  14  15  16  17  18  19  20  21  23  24  26 0
 3-21G
 ****
 27  28  34  35  38  39  40  41  42  43  44  45  46  47  48 0
 3-21G
 ****


