%nproc=1
%NoSave
%Mem=1900MB
#P OB98/GEN NMR

erre ene a

0 1
  C      799.561    -194.167     519.914
  O      800.767    -194.719     519.428
  H      799.366    -193.226     519.393
  H      799.645    -193.967     520.987
  H      798.722    -194.852     519.728
  P      801.131    -196.213     519.881
  C      799.996    -198.496     519.366
  O      800.319    -197.194     518.900
  C      799.765    -199.431     518.175
  O      798.746    -198.840     517.317
  C      801.016    -199.672     517.317
  O      800.989    -201.028     516.855
  C      800.805    -198.735     516.139
  O      801.518    -199.118     514.970
  C      799.283    -198.820     515.974
  N      798.744    -197.691     515.216
  C      798.059    -197.981     514.039
  O      797.805    -199.118     513.637
  N      797.653    -196.896     513.299
  C      797.885    -195.590     513.610
  O      797.522    -194.659     512.900
  C      798.622    -195.344     514.860
  C      799.007    -196.390     515.587
  O      800.362    -196.362     521.278
  O      802.595    -196.512     519.997
  H      800.930    -196.082     522.014
  H      802.448    -198.844     515.091
  H      797.163    -197.089     512.445
  H      798.832    -194.314     515.135
  H      799.574    -196.246     516.511
  H      799.004    -199.761     515.490
  H      801.115    -197.718     516.407
  H      801.956    -199.475     517.836
  H      799.365    -200.382     518.553
  H      799.079    -198.451     519.966
  H      800.808    -198.868     519.993
  P      801.695    -202.139     517.780
  C      800.536    -202.661     520.074
  O      800.518    -202.776     518.648
  O      802.504    -201.214     518.806
  O      802.530    -203.099     516.994
  H      802.030    -200.389     519.035
  H      799.673    -203.145     520.482
  H      800.528    -201.627     520.349
  H      801.420    -203.125     520.458

 6  7  8  9  10  11  12  13  14  15  16  27  31  32  33  34  35 0
 6-311+G(2d,p)
 ****
 36  37 0
 6-311+G(2d,p)
 ****
 1  2  3  4  5  17  18  19  20  21  22  23  24  25 0
 3-21G
 ****
 26  28  29  30  38  39  40  41  42  43  44  45 0
 3-21G
 ****


