%nproc=1
%NoSave
%Mem=1900MB
#P OB98/GEN NMR

erre ene a

0 1
  C     -120.087     418.624     476.604
  O     -119.892     419.895     477.195
  H     -119.726     418.664     475.570
  H     -121.146     418.358     476.595
  H     -119.514     417.867     477.144
  P     -120.483     420.162     478.661
  C     -122.422     421.660     477.863
  O     -122.055     420.428     478.479
  C     -123.515     422.365     478.668
  O     -123.611     423.740     478.214
  C     -124.899     421.719     478.524
  O     -125.568     421.793     479.786
  C     -125.580     422.610     477.507
  O     -126.991     422.538     477.611
  C     -124.975     423.987     477.825
  N     -125.059     424.882     476.669
  C     -125.783     426.066     476.855
  O     -126.288     426.320     477.952
  N     -125.969     426.910     475.789
  C     -125.520     426.569     474.618
  N     -125.774     427.428     473.593
  C     -124.783     425.312     474.369
  C     -124.591     424.521     475.429
  O     -119.768     421.182     479.485
  O     -120.440     418.716     479.352
  H     -127.297     421.672     477.264
  H     -119.594     418.593     479.818
  H     -124.438     425.071     473.370
  H     -124.065     423.580     475.337
  H     -125.490     424.453     478.674
  H     -125.298     422.300     476.495
  H     -124.855     420.675     478.188
  H     -123.204     422.397     479.718
  H     -126.304     428.261     473.808
  H     -122.796     421.434     476.855
  H     -125.512     427.247     472.629
  H     -121.544     422.305     477.776
  P     -125.489     420.576     480.827
  C     -127.946     419.886     480.670
  O     -126.597     419.481     480.441
  O     -125.488     420.979     482.268
  O     -124.105     419.841     480.453
  H     -123.734     419.428     481.253
  H     -128.609     419.096     480.385
  H     -128.160     420.758     480.089
  H     -128.081     420.107     481.708

 6  7  8  9  10  11  12  13  14  15  16  26  30  31  32  33  35 0
 6-311+G(2d,p)
 ****
 37  38 0
 6-311+G(2d,p)
 ****
 1  2  3  4  5  17  18  19  20  21  22  23  24  25 0
 3-21G
 ****
 27  28  29  34  36  39  40  41  42  43  44  45  46 0
 3-21G
 ****


