%nproc=1
%NoSave
%Mem=1900MB
#P OB98/GEN NMR

erre ene a

0 1
  C      -99.480       0.730      84.023
  O     -100.809       0.853      83.558
  H      -99.483       0.786      85.115
  H      -98.856       1.539      83.635
  H      -99.065      -0.237      83.725
  P     -101.069       0.965      81.981
  C     -100.760      -1.550      81.518
  O     -101.663      -0.452      81.516
  C     -101.446      -2.819      81.005
  O     -102.418      -3.250      81.995
  C     -102.176      -2.625      79.671
  O     -102.018      -3.816      78.894
  C     -103.618      -2.458      80.105
  O     -104.517      -2.791      79.064
  C     -103.697      -3.360      81.340
  N     -104.798      -2.960      82.218
  C     -106.046      -3.535      81.954
  O     -106.176      -4.346      81.032
  N     -107.130      -3.136      82.691
  C     -106.998      -2.200      83.579
  N     -108.120      -1.823      84.246
  C     -105.706      -1.544      83.873
  C     -104.658      -1.971      83.163
  O      -99.926       1.462      81.159
  O     -102.336       1.941      81.876
  H     -104.273      -3.664      78.689
  H     -102.038       2.867      81.797
  H     -105.648      -0.766      84.617
  H     -103.673      -1.539      83.304
  H     -103.840      -4.409      81.050
  H     -103.801      -1.412      80.384
  H     -101.815      -1.760      79.107
  H     -100.695      -3.616      80.931
  H     -108.988      -2.283      83.994
  H     -100.422      -1.708      82.548
  H     -108.150      -1.079      84.929
  H      -99.891      -1.318      80.895
  P     -101.454      -3.746      77.393
  C      -99.320      -2.364      77.701
  O      -99.848      -3.662      77.444
  O     -102.103      -2.714      76.530
  O     -101.725      -5.217      76.813
  H     -101.873      -5.161      75.848
  H      -98.251      -2.410      77.716
  H      -99.675      -2.016      78.648
  H      -99.637      -1.691      76.932

 6  7  8  9  10  11  12  13  14  15  16  26  30  31  32  33  35 0
 6-311+G(2d,p)
 ****
 37  38 0
 6-311+G(2d,p)
 ****
 1  2  3  4  5  17  18  19  20  21  22  23  24  25 0
 3-21G
 ****
 27  28  29  34  36  39  40  41  42  43  44  45  46 0
 3-21G
 ****


