%nproc=1
%NoSave
%Mem=1900MB
#P OB98/GEN NMR

erre ene a

0 1
  C      -84.881      39.679     108.122
  O      -84.398      39.810     106.787
  P      -85.076      39.145     105.505
  C      -86.664      41.097     104.771
  O      -85.509      40.315     104.505
  C      -86.661      42.449     104.037
  O      -85.617      43.296     104.586
  C      -86.326      42.255     102.557
  O      -87.343      41.894     101.641
  C      -85.560      43.511     102.167
  O      -86.404      44.517     101.603
  C      -84.974      43.992     103.498
  N      -80.357      46.180     103.248
  C      -81.600      46.739     103.032
  N      -81.621      48.035     102.653
  N      -82.722      46.083     103.160
  C      -82.555      44.775     103.458
  C      -81.375      44.100     103.675
  C      -80.139      44.852     103.589
  O      -79.012      44.408     103.782
  N      -81.596      42.772     103.933
  C      -82.902      42.636     103.847
  N      -83.532      43.828     103.567
  O      -86.087      38.087     105.788
  O      -83.833      38.442     104.753
  H      -87.077      44.749     102.264
  H      -84.188      37.640     104.317
  H      -79.527      46.739     103.159
  H      -83.441      41.707     103.985
  H      -85.172      45.059     103.653
  H      -84.803      43.280     101.408
  H      -80.793      48.560     102.422
  H      -85.597      41.438     102.499
  H      -82.508      48.386     102.284
  H      -87.598      42.985     104.203
  H      -86.701      41.250     105.854
  H      -87.562      40.538     104.506
  P      -87.222      40.801     100.475
  C      -88.356      38.947     101.830
  O      -88.411      39.747     100.662
  O      -85.930      39.948     100.877
  O      -87.084      41.362      99.098
  H      -85.614      39.429     100.113
  H      -89.013      38.082     101.700
  H      -88.701      39.529     102.689
  H      -87.336      38.593     102.015
  H      -84.243      40.222     108.787
  H      -84.888      38.646     108.399
  H      -85.875      40.071     108.182

 3  4  5  6  7  8  9  10  11  12  23  26  30  31 0
 6-311+G(2d,p)
 ****
 33  35  36  37  38 0
 6-311+G(2d,p)
 ****
 1  2  13  14  15  16  17  18  19  20  21  22  24  25 0
 3-21G
 ****
 27  28  29  32  34  39  40  41  42  43  44  45  46  47  48  49 0
 3-21G
 ****


