%nproc=1
%NoSave
%Mem=1900MB
#P OB98/GEN NMR

erre ene a

0 1
  C      251.754      67.239     340.253
  O      251.490      68.000     339.100
  H      251.522      67.849     341.131
  H      252.811      66.964     340.298
  H      251.129      66.341     340.280
  P      251.782      67.364     337.652
  C      253.965      68.719     337.578
  O      252.744      68.423     336.910
  C      254.564      70.030     337.072
  O      255.054      69.850     335.713
  C      253.566      71.200     337.054
  O      254.169      72.363     337.637
  C      253.323      71.439     335.568
  O      252.896      72.768     335.281
  C      254.686      71.035     334.988
  N      254.622      70.815     333.551
  C      254.251      71.915     332.771
  O      254.003      72.997     333.306
  N      254.113      71.755     331.416
  C      254.285      70.578     330.891
  N      254.107      70.478     329.545
  C      254.651      69.383     331.680
  C      254.806      69.571     332.989
  O      250.563      66.972     336.885
  O      252.771      66.135     337.938
  H      253.567      73.395     335.629
  H      252.710      65.496     337.186
  H      254.782      68.426     331.192
  H      255.074      68.754     333.650
  H      255.444      71.810     335.192
  H      252.551      70.750     335.215
  H      252.636      70.983     337.578
  H      255.444      70.267     337.687
  H      253.853      71.322     329.044
  H      254.664      67.887     337.415
  H      254.192      69.617     329.028
  H      253.757      68.806     338.650
  P      253.735      72.707     339.141
  C      251.728      74.153     338.362
  O      252.930      74.094     339.117
  O      255.124      73.067     339.852
  O      253.046      71.571     339.836
  H      255.364      72.373     340.490
  H      251.306      75.133     338.440
  H      251.033      73.434     338.742
  H      251.940      73.936     337.336

 6  7  8  9  10  11  12  13  14  15  16  26  30  31  32  33  35 0
 6-311+G(2d,p)
 ****
 37  38 0
 6-311+G(2d,p)
 ****
 1  2  3  4  5  17  18  19  20  21  22  23  24  25 0
 3-21G
 ****
 27  28  29  34  36  39  40  41  42  43  44  45  46 0
 3-21G
 ****


