%nproc=1
%NoSave
%Mem=1900MB
#P OB98/GEN NMR

erre ene a

0 1
  C      163.270    -351.052     -99.492
  O      162.336    -351.204    -100.569
  P      160.774    -351.112    -100.219
  C      160.116    -348.599    -100.311
  O      160.146    -349.848    -100.990
  C      159.851    -347.435    -101.282
  O      160.974    -347.253    -102.185
  C      158.611    -347.647    -102.165
  O      158.048    -346.362    -102.462
  C      159.201    -348.234    -103.429
  O      158.298    -348.111    -104.535
  C      160.487    -347.421    -103.540
  N      162.486    -347.591    -108.169
  C      161.440    -346.828    -107.674
  N      160.876    -345.958    -108.539
  N      160.998    -346.913    -106.446
  C      161.693    -347.804    -105.693
  C      162.735    -348.622    -106.064
  C      163.194    -348.536    -107.432
  O      164.107    -349.194    -107.935
  N      163.160    -349.404    -105.020
  C      162.364    -349.063    -104.017
  N      161.490    -348.071    -104.365
  O      160.781    -350.642     -98.680
  O      160.040    -352.402    -100.389
  H      158.798    -348.346    -105.348
  H      160.504    -351.388     -98.113
  H      162.777    -347.498    -109.128
  H      162.392    -349.499    -103.028
  H      160.317    -346.419    -103.964
  H      159.414    -349.298    -103.285
  H      161.197    -345.807    -109.481
  H      157.835    -348.284    -101.721
  H      160.131    -345.357    -108.191
  H      159.741    -346.518    -100.701
  H      161.065    -348.427     -99.794
  H      159.353    -348.641     -99.525
  P      156.884    -345.836    -101.497
  C      158.169    -343.941    -100.276
  O      157.192    -344.287    -101.233
  O      157.214    -346.531    -100.088
  O      155.496    -346.148    -101.960
  H      156.408    -346.615     -99.553
  H      159.090    -343.641    -100.792
  H      158.394    -344.776     -99.597
  H      157.803    -343.098     -99.673
  H      164.267    -351.136     -99.870
  H      163.100    -351.816     -98.762
  H      163.140    -350.091     -99.040

 3  4  5  6  7  8  9  10  11  12  23  26  30  31 0
 6-311+G(2d,p)
 ****
 33  35  36  37  38 0
 6-311+G(2d,p)
 ****
 1  2  13  14  15  16  17  18  19  20  21  22  24  25 0
 3-21G
 ****
 27  28  29  32  34  39  40  41  42  43  44  45  46  47  48  49 0
 3-21G
 ****


