%nproc=1
%NoSave
%Mem=1900MB
#P OB98/GEN NMR

erre ene a

0 1
  C     -208.376      82.865      49.167
  O     -208.996      82.241      50.274
  H     -207.940      82.095      48.528
  H     -207.579      83.527      49.514
  H     -209.111      83.434      48.588
  P     -209.784      83.192      51.297
  C     -209.014      84.681      53.278
  O     -208.751      83.533      52.484
  C     -207.922      84.870      54.331
  O     -208.255      84.070      55.506
  C     -206.516      84.445      53.870
  O     -205.565      85.330      54.473
  C     -206.354      83.072      54.503
  O     -204.987      82.690      54.632
  C     -207.081      83.297      55.829
  N     -205.170      78.978      57.576
  C     -204.546      80.077      57.014
  N     -203.201      80.014      56.899
  N     -205.181      81.141      56.601
  C     -206.516      81.079      56.808
  C     -207.259      80.053      57.347
  C     -206.545      78.867      57.776
  O     -207.047      77.858      58.263
  N     -208.599      80.362      57.360
  C     -208.663      81.574      56.832
  N     -207.429      82.049      56.482
  O     -210.826      82.186      51.981
  O     -210.464      84.371      50.684
  H     -204.958      81.722      54.789
  H     -211.680      82.212      51.510
  H     -204.637      78.180      57.867
  H     -209.571      82.143      56.678
  H     -206.477      83.871      56.543
  H     -206.865      82.312      53.898
  H     -202.640      79.250      57.239
  H     -206.380      84.440      52.782
  H     -202.718      80.827      56.530
  H     -207.926      85.918      54.655
  H     -209.978      84.552      53.782
  H     -209.066      85.564      52.631
  P     -205.054      86.586      53.618
  C     -202.856      87.232      52.383
  O     -203.641      86.201      52.959
  O     -204.640      87.644      54.748
  O     -206.075      87.146      52.681
  H     -204.729      88.552      54.404
  H     -201.952      86.815      51.990
  H     -202.618      87.959      53.131
  H     -203.406      87.700      51.593

 6  7  8  9  10  11  12  13  14  15  26  29  33  34 0
 6-311+G(2d,p)
 ****
 36  38  39  40  41 0
 6-311+G(2d,p)
 ****
 1  2  3  4  5  16  17  18  19  20  21  22  23  24  25 0
 3-21G
 ****
 27  28  30  31  32  35  37  42  43  44  45  46  47 0
 3-21G
 ****
 48  49 0
 3-21G
 ****


