%nproc=1
%NoSave
%Mem=1900MB
#P OB98/GEN NMR

erre ene a

0 1
  C        1.024      68.858    -146.902
  O        0.029      69.672    -146.313
  H        0.710      67.813    -146.823
  H        1.973      68.977    -146.371
  H        1.155      69.107    -147.958
  P        0.169      71.269    -146.429
  C        1.869      73.001    -145.550
  O        1.285      71.718    -145.368
  C        2.730      73.357    -144.335
  O        1.911      73.428    -143.148
  C        3.816      72.333    -144.031
  O        4.901      72.454    -144.927
  C        4.141      72.681    -142.586
  O        5.022      73.811    -142.517
  C        2.740      73.036    -142.030
  N        2.130      71.938    -141.279
  C        2.525      71.803    -139.948
  O        3.365      72.531    -139.414
  N        1.939      70.776    -139.256
  C        1.110      69.827    -139.777
  O        0.681      68.873    -139.135
  C        0.746      70.003    -141.193
  C        1.265      71.037    -141.867
  O       -1.108      72.036    -146.366
  O        0.910      71.480    -147.834
  H        5.073      74.061    -141.576
  H        0.265      71.796    -148.495
  H        2.220      70.654    -138.295
  H        0.079      69.279    -141.639
  H        1.014      71.181    -142.911
  H        2.807      73.912    -141.369
  H        4.625      71.859    -142.061
  H        3.397      71.318    -144.065
  H        3.165      74.355    -144.506
  H        1.068      73.744    -145.657
  H        2.471      72.993    -146.464
  P        5.522      71.146    -145.611
  C        6.796      69.036    -144.869
  O        6.256      70.295    -144.465
  O        6.345      71.395    -146.837
  O        4.241      70.253    -145.965
  H        4.201      70.105    -146.930
  H        7.258      68.560    -144.029
  H        7.525      69.190    -145.637
  H        6.010      68.414    -145.243

 6  7  8  9  10  11  12  13  14  15  16  26  31  32  33  34  35 0
 6-311+G(2d,p)
 ****
 36  37 0
 6-311+G(2d,p)
 ****
 1  2  3  4  5  17  18  19  20  21  22  23  24  25 0
 3-21G
 ****
 27  28  29  30  38  39  40  41  42  43  44  45 0
 3-21G
 ****


