%nproc=1
%NoSave
%Mem=1900MB
#P OB98/GEN NMR

erre ene a

0 1
  C       38.449    -193.112      42.329
  O       37.399    -192.163      42.160
  P       37.223    -191.464      40.730
  C       35.805    -193.143      39.255
  O       35.876    -191.974      40.040
  C       34.586    -193.054      38.324
  O       34.660    -194.073      37.303
  C       33.257    -193.246      39.049
  O       32.767    -192.032      39.588
  C       32.381    -193.820      37.953
  O       31.940    -192.775      37.066
  C       33.377    -194.758      37.232
  N       33.544    -196.131      37.754
  C       32.497    -197.043      37.653
  O       31.405    -196.789      37.152
  N       32.742    -198.298      38.146
  C       33.948    -198.780      38.562
  O       34.123    -199.931      38.938
  C       35.057    -197.821      38.509
  C       34.808    -196.566      38.128
  O       38.379    -192.117      39.842
  O       37.315    -189.970      40.758
  H       31.364    -193.187      36.399
  H       39.028    -191.440      39.577
  H       31.971    -198.948      38.147
  H       36.042    -198.174      38.784
  H       35.624    -195.848      38.087
  H       33.117    -194.854      36.171
  H       31.479    -194.270      38.363
  H       33.359    -194.005      39.830
  H       34.601    -192.077      37.827
  H       35.728    -194.032      39.886
  H       36.723    -193.249      38.668
  P       32.338    -191.958      41.129
  C       34.399    -191.818      42.650
  O       33.481    -191.094      41.854
  O       32.003    -193.258      41.778
  O       31.093    -190.948      41.124
  H       30.242    -191.445      41.099
  H       35.208    -191.147      42.952
  H       34.823    -192.652      42.084
  H       33.898    -192.195      43.546
  H       38.434    -193.486      43.332
  H       39.390    -192.640      42.138
  H       38.311    -193.922      41.644

 3  4  5  6  7  8  9  10  11  12  13  23  28  29  30  31  32 0
 6-311+G(2d,p)
 ****
 33  34 0
 6-311+G(2d,p)
 ****
 1  2  14  15  16  17  18  19  20  21  22  24  25  26  27 0
 3-21G
 ****
 35  36  37  38  39  40  41  42  43  44  45 0
 3-21G
 ****


