%nproc=1
%NoSave
%Mem=1900MB
#P OB98/GEN NMR

erre ene a

0 1
  C     -307.851    -159.816    -694.125
  O     -307.333    -158.532    -693.826
  H     -307.538    -160.097    -695.136
  H     -308.947    -159.786    -694.100
  H     -307.478    -160.560    -693.416
  P     -307.512    -158.020    -692.318
  C     -309.235    -156.096    -692.596
  O     -309.005    -157.442    -692.205
  C     -310.175    -155.400    -691.618
  O     -311.420    -156.134    -691.511
  C     -309.629    -155.293    -690.192
  O     -308.750    -154.176    -690.047
  C     -310.914    -155.087    -689.413
  O     -311.361    -153.717    -689.566
  C     -311.873    -156.042    -690.132
  N     -312.991    -158.759    -685.988
  C     -313.054    -157.389    -686.201
  N     -313.473    -156.633    -685.165
  N     -312.747    -156.806    -687.330
  C     -312.331    -157.685    -688.287
  C     -312.226    -159.059    -688.197
  C     -312.589    -159.685    -686.945
  O     -312.568    -160.893    -686.711
  N     -311.787    -159.608    -689.372
  C     -311.611    -158.566    -690.165
  N     -311.919    -157.379    -689.554
  O     -306.604    -156.693    -692.267
  O     -307.115    -158.992    -691.256
  H     -312.155    -153.618    -689.017
  H     -306.189    -156.633    -691.383
  H     -313.232    -159.149    -685.097
  H     -311.259    -158.624    -691.190
  H     -312.907    -155.662    -690.146
  H     -310.791    -155.260    -688.344
  H     -313.677    -157.015    -684.248
  H     -309.145    -156.223    -689.878
  H     -313.558    -155.631    -685.300
  H     -310.410    -154.402    -692.013
  H     -309.683    -156.083    -693.599
  H     -308.272    -155.564    -692.637
  P     -307.566    -154.299    -688.962
  C     -309.039    -152.965    -687.290
  O     -308.269    -154.145    -687.532
  O     -306.770    -152.914    -689.139
  O     -306.675    -155.488    -689.140
  H     -305.853    -153.015    -688.829
  H     -309.445    -153.001    -686.301
  H     -309.837    -152.907    -688.001
  H     -308.412    -152.104    -687.387

 6  7  8  9  10  11  12  13  14  15  26  29  33  34 0
 6-311+G(2d,p)
 ****
 36  38  39  40  41 0
 6-311+G(2d,p)
 ****
 1  2  3  4  5  16  17  18  19  20  21  22  23  24  25 0
 3-21G
 ****
 27  28  30  31  32  35  37  42  43  44  45  46  47 0
 3-21G
 ****
 48  49 0
 3-21G
 ****


