%nproc=1
%NoSave
%Mem=1900MB
#P OB98/GEN NMR

erre ene a

0 1
  C     -113.515      21.628      95.353
  O     -114.864      21.389      94.946
  P     -115.976      21.080      96.058
  C     -116.475      18.615      95.471
  O     -115.926      19.516      96.423
  C     -117.633      17.803      96.090
  O     -117.126      16.959      97.158
  C     -118.741      18.693      96.676
  O     -120.048      18.337      96.215
  C     -118.515      18.601      98.175
  O     -119.687      18.884      98.929
  C     -117.913      17.196      98.340
  N     -117.123      17.083      99.571
  C     -117.712      16.401     100.629
  O     -118.869      15.977     100.599
  N     -116.945      16.281     101.765
  C     -115.714      16.824     101.956
  O     -115.085      16.727     103.007
  C     -115.165      17.589     100.821
  C     -115.884      17.677      99.698
  O     -117.342      21.616      95.776
  O     -115.358      21.757      97.378
  H     -119.462      18.835      99.884
  H     -116.099      22.165      97.876
  H     -117.354      15.779     102.536
  H     -114.196      18.055     100.948
  H     -115.511      18.241      98.850
  H     -118.704      16.434      98.390
  H     -117.760      19.342      98.462
  H     -118.629      19.739      96.361
  H     -118.036      17.161      95.299
  H     -115.705      17.923      95.134
  H     -116.807      19.170      94.589
  P     -120.931      19.219      95.219
  C     -122.930      19.274      96.876
  O     -122.021      20.019      96.083
  O     -121.478      18.510      94.026
  O     -119.913      20.372      94.757
  H     -120.041      20.548      93.805
  H     -123.805      19.906      97.086
  H     -122.456      18.998      97.818
  H     -123.270      18.370      96.353
  H     -112.910      21.816      94.491
  H     -113.141      20.769      95.870
  H     -113.484      22.478      96.003

 3  4  5  6  7  8  9  10  11  12  13  23  28  29  30  31  32 0
 6-311+G(2d,p)
 ****
 33  34 0
 6-311+G(2d,p)
 ****
 1  2  14  15  16  17  18  19  20  21  22  24  25  26  27 0
 3-21G
 ****
 35  36  37  38  39  40  41  42  43  44  45 0
 3-21G
 ****


