%nproc=1
%NoSave
%Mem=1900MB
#P OB98/GEN NMR

erre ene a

0 1
  C      176.479    -890.650     124.939
  O      176.462    -891.990     124.494
  H      176.562    -890.010     124.061
  H      177.331    -890.480     125.586
  H      175.546    -890.420     125.449
  P      176.403    -893.170     125.594
  C      178.681    -892.540     126.637
  O      177.279    -892.680     126.836
  C      179.448    -892.920     127.898
  O      179.317    -894.360     128.076
  C      180.957    -892.590     127.819
  O      181.419    -891.820     128.923
  C      181.601    -893.950     127.563
  O      182.943    -894.040     128.006
  C      180.634    -894.920     128.245
  N      180.683    -896.280     127.709
  C      181.784    -897.060     128.043
  O      182.702    -896.710     128.786
  N      181.796    -898.330     127.512
  C      180.856    -898.860     126.677
  O      180.928    -900.000     126.221
  C      179.740    -897.980     126.330
  C      179.703    -896.750     126.852
  O      176.739    -894.530     125.091
  O      174.906    -893.090     126.146
  H      182.919    -894.030     128.977
  H      174.390    -893.840     125.787
  H      182.575    -898.910     127.766
  H      178.980    -898.360     125.658
  H      178.886    -896.070     126.608
  H      180.838    -894.990     129.318
  H      181.603    -894.140     126.484
  H      181.147    -891.940     126.957
  H      178.977    -892.440     128.765
  H      178.883    -891.490     126.367
  H      178.999    -893.180     125.802
  P      181.999    -890.330     128.827
  C      184.338    -890.840     127.743
  O      183.041    -890.280     127.608
  O      182.424    -889.720     130.115
  O      180.754    -889.470     128.268
  H      180.848    -888.580     128.650
  H      184.880    -890.709     126.830
  H      184.255    -891.884     127.961
  H      184.857    -890.349     128.540

 6  7  8  9  10  11  12  13  14  15  16  26  31  32  33  34  35 0
 6-311+G(2d,p)
 ****
 36  37 0
 6-311+G(2d,p)
 ****
 1  2  3  4  5  17  18  19  20  21  22  23  24  25 0
 3-21G
 ****
 27  28  29  30  38  39  40  41  42  43  44  45 0
 3-21G
 ****


