%nproc=1
%NoSave
%Mem=1900MB
#P OB98/GEN NMR

erre ene a

0 1
  C      218.840     121.183    -140.892
  O      219.067     122.370    -140.146
  P      219.388     123.715    -140.965
  C      221.112     124.269    -142.874
  O      220.694     123.394    -141.837
  C      222.618     124.116    -143.118
  O      223.350     124.518    -141.940
  C      223.071     122.691    -143.416
  O      222.772     122.307    -144.744
  C      224.561     122.785    -143.098
  O      225.269     123.374    -144.200
  C      224.571     123.746    -141.888
  N      224.702     123.052    -140.602
  C      225.936     122.457    -140.354
  O      226.876     122.493    -141.149
  N      226.047     121.790    -139.161
  C      225.050     121.616    -138.241
  O      225.190     120.974    -137.206
  C      223.761     122.243    -138.574
  C      223.648     122.922    -139.722
  O      219.908     124.659    -139.781
  O      218.214     124.238    -141.721
  H      220.298     124.144    -139.054
  H      226.054     123.816    -143.822
  H      226.940     121.370    -138.944
  H      222.944     122.119    -137.876
  H      222.704     123.383    -139.990
  H      225.390     124.466    -141.982
  H      225.014     121.805    -142.900
  H      222.591     121.998    -142.715
  H      222.904     124.791    -143.941
  H      220.890     125.300    -142.586
  H      220.551     124.036    -143.789
  P      222.602     120.725    -145.018
  C      224.259     118.703    -145.002
  O      224.075     120.102    -144.937
  O      222.254     120.717    -146.584
  O      221.576     120.075    -144.149
  H      222.798     121.341    -147.098
  H      225.293     118.500    -145.288
  H      223.592     118.247    -145.739
  H      224.071     118.263    -144.018
  H      218.640     120.373    -140.222
  H      219.708     120.957    -141.475
  H      218.001     121.324    -141.541

 3  4  5  6  7  8  9  10  11  12  13  24  28  29  30  31  32 0
 6-311+G(2d,p)
 ****
 33  34 0
 6-311+G(2d,p)
 ****
 1  2  14  15  16  17  18  19  20  21  22  23  25  26  27 0
 3-21G
 ****
 35  36  37  38  39  40  41  42  43  44  45 0
 3-21G
 ****


