%nproc=1
%NoSave
%Mem=1900MB
#P OB98/GEN NMR

erre ene a

0 1
  C      -75.186     105.202    -163.772
  O      -75.992     104.228    -164.405
  H      -75.631     106.193    -163.888
  H      -75.120     104.967    -162.706
  H      -74.178     105.194    -164.197
  P      -76.223     104.415    -165.982
  C      -77.911     106.364    -165.763
  O      -76.626     105.954    -166.211
  C      -78.192     107.793    -166.220
  O      -79.599     108.072    -165.993
  C      -77.369     108.862    -165.478
  O      -76.740     109.749    -166.412
  C      -78.401     109.643    -164.687
  O      -78.083     111.025    -164.572
  C      -79.679     109.409    -165.484
  N      -83.037     112.829    -163.743
  C      -82.208     112.855    -164.809
  N      -81.409     111.874    -165.274
  C      -81.546     110.758    -164.537
  C      -82.370     110.574    -163.438
  C      -83.128     111.683    -163.029
  N      -83.932     111.674    -161.910
  N      -82.237     109.292    -162.934
  C      -81.315     108.729    -163.690
  N      -80.858     109.581    -164.662
  O      -77.589     103.620    -166.248
  O      -75.114     103.900    -166.836
  H      -77.217     111.088    -164.130
  H      -77.412     102.893    -166.874
  H      -82.176     113.792    -165.358
  H      -80.912     107.732    -163.551
  H      -79.755     110.092    -166.339
  H      -78.475     109.218    -163.680
  H      -76.607     108.426    -164.824
  H      -78.019     107.859    -167.300
  H      -77.948     106.324    -164.670
  H      -84.347     112.545    -161.622
  H      -83.916     110.859    -161.312
  H      -78.664     105.679    -166.165
  P      -75.177     109.491    -166.696
  C      -74.299     110.214    -164.361
  O      -74.467     109.154    -165.295
  O      -74.631     110.949    -167.070
  O      -74.920     108.513    -167.794
  H      -74.206     110.928    -167.950
  H      -73.815     109.842    -163.482
  H      -75.256     110.614    -164.099
  H      -73.699     110.984    -164.799

 6  7  8  9  10  11  12  13  14  15  25  28  32  33  34  35 0
 6-311+G(2d,p)
 ****
 36  39  40 0
 6-311+G(2d,p)
 ****
 1  2  3  4  5  16  17  18  19  20  21  22  23  24 0
 3-21G
 ****
 26  27  29  30  31  37  38  41  42  43  44  45  46  47  48 0
 3-21G
 ****


