%nproc=1
%NoSave
%Mem=1900MB
#P OB98/GEN NMR

erre ene a

0 1
  C      224.524      -4.622    -277.977
  O      224.177      -5.953    -278.333
  P      225.286      -7.094    -278.122
  C      224.402      -8.406    -280.185
  O      225.510      -7.752    -279.567
  C      224.746      -8.799    -281.620
  O      224.839      -7.628    -282.451
  C      226.075      -9.524    -281.775
  O      225.979     -10.904    -281.471
  C      226.341      -9.325    -283.261
  O      225.563     -10.260    -284.026
  C      225.822      -7.901    -283.487
  N      230.017      -6.117    -285.802
  C      229.238      -7.185    -286.061
  N      228.139      -7.601    -285.391
  C      227.902      -6.805    -284.330
  C      228.635      -5.704    -283.919
  C      229.736      -5.348    -284.719
  N      230.523      -4.245    -284.472
  N      228.088      -5.143    -282.789
  C      227.032      -5.886    -282.525
  N      226.872      -6.897    -283.433
  O      224.489      -8.227    -277.322
  O      226.514      -6.656    -277.403
  H      225.831     -11.154    -283.740
  H      225.117      -8.792    -276.825
  H      229.520      -7.783    -286.919
  H      226.355      -5.729    -281.692
  H      225.314      -7.789    -284.452
  H      227.388      -9.480    -283.530
  H      226.869      -9.030    -281.195
  H      223.925      -9.421    -282.002
  H      223.551      -7.720    -280.198
  H      231.170      -3.960    -285.184
  H      230.189      -3.572    -283.791
  H      224.136      -9.287    -279.600
  P      227.348     -11.745    -281.452
  C      226.178     -13.890    -282.322
  O      227.158     -12.893    -282.546
  O      227.280     -12.519    -280.052
  O      228.579     -10.906    -281.573
  H      228.174     -12.729    -279.734
  H      225.965     -14.392    -283.274
  H      225.245     -13.454    -281.945
  H      226.549     -14.627    -281.608
  H      223.695      -3.974    -278.170
  H      225.366      -4.306    -278.556
  H      224.772      -4.584    -276.937

 3  4  5  6  7  8  9  10  11  12  22  25  29  30  31  32 0
 6-311+G(2d,p)
 ****
 33  36  37 0
 6-311+G(2d,p)
 ****
 1  2  13  14  15  16  17  18  19  20  21  23  24  26 0
 3-21G
 ****
 27  28  34  35  38  39  40  41  42  43  44  45  46  47  48 0
 3-21G
 ****


