%nproc=1
%NoSave
%Mem=1900MB
#P OB98/GEN NMR

erre ene a

0 1
  C     -291.780    -729.472     -21.671
  O     -293.185    -729.373     -21.537
  P     -294.123    -729.558     -22.820
  C     -294.001    -732.078     -23.295
  O     -293.548    -730.784     -23.674
  C     -294.867    -732.682     -24.401
  O     -296.143    -732.014     -24.461
  C     -294.270    -732.549     -25.797
  O     -293.234    -733.491     -25.992
  C     -295.503    -732.765     -26.665
  O     -295.780    -734.168     -26.812
  C     -296.600    -732.087     -25.830
  N     -299.589    -729.454     -29.014
  C     -299.376    -730.779     -28.868
  N     -298.530    -731.403     -28.020
  C     -297.850    -730.506     -27.290
  C     -297.934    -729.123     -27.351
  C     -298.874    -728.592     -28.249
  N     -299.147    -727.248     -28.363
  N     -297.046    -728.547     -26.462
  C     -296.435    -729.561     -25.886
  N     -296.933    -730.762     -26.306
  O     -294.393    -728.313     -23.599
  O     -295.482    -730.148     -22.213
  H     -294.949    -734.598     -27.096
  H     -296.216    -729.537     -22.407
  H     -299.969    -731.423     -29.512
  H     -295.645    -729.477     -25.150
  H     -297.526    -732.673     -25.824
  H     -295.387    -732.350     -27.672
  H     -293.898    -731.529     -25.949
  H     -295.048    -733.736     -24.154
  H     -294.588    -731.982     -22.377
  H     -299.938    -726.989     -28.932
  H     -298.855    -726.632     -27.608
  H     -293.139    -732.720     -23.098
  P     -292.157    -733.262     -27.155
  C     -290.734    -731.709     -25.694
  O     -291.480    -731.835     -26.892
  O     -292.651    -733.484     -28.546
  O     -290.984    -734.285     -26.786
  H     -290.557    -734.601     -27.605
  H     -291.415    -731.580     -24.848
  H     -290.092    -730.829     -25.775
  H     -290.107    -732.593     -25.528
  H     -291.319    -729.322     -20.717
  H     -291.434    -728.726     -22.356
  H     -291.525    -730.443     -22.042

 3  4  5  6  7  8  9  10  11  12  22  25  29  30  31  32 0
 6-311+G(2d,p)
 ****
 33  36  37 0
 6-311+G(2d,p)
 ****
 1  2  13  14  15  16  17  18  19  20  21  23  24  26 0
 3-21G
 ****
 27  28  34  35  38  39  40  41  42  43  44  45  46  47  48 0
 3-21G
 ****


