%nproc=1
%NoSave
%Mem=1900MB
#P OB98/GEN NMR

erre ene a

0 1
  C     -357.309     538.456     402.885
  O     -356.030     539.083     402.964
  P     -355.754     540.389     402.078
  C     -353.775     539.456     400.703
  O     -354.196     540.404     401.677
  C     -352.576     538.656     401.207
  O     -352.980     537.568     402.081
  C     -351.779     537.996     400.091
  O     -351.005     538.947     399.385
  C     -350.986     536.954     400.858
  O     -349.813     537.535     401.453
  C     -351.987     536.529     401.963
  N     -352.603     535.229     401.716
  C     -352.678     534.374     402.809
  O     -352.206     534.707     403.901
  N     -353.275     533.141     402.643
  C     -353.744     532.810     401.486
  N     -354.321     531.579     401.369
  C     -353.668     533.682     400.294
  C     -353.080     534.865     400.478
  O     -356.278     541.666     402.627
  O     -356.457     540.026     400.678
  H     -350.136     538.233     402.056
  H     -356.767     540.850     400.255
  H     -354.081     533.358     399.345
  H     -352.980     535.575     399.660
  H     -351.482     536.489     402.935
  H     -350.643     536.135     400.210
  H     -352.472     537.495     399.390
  H     -351.925     539.330     401.769
  H     -354.354     530.995     402.193
  H     -353.519     539.970     399.771
  H     -354.763     531.259     400.524
  H     -354.621     538.794     400.468
  P     -350.827     538.745     397.799
  C     -348.246     539.062     397.799
  O     -349.509     539.540     397.352
  O     -352.015     539.633     397.187
  O     -350.911     537.328     397.339
  H     -352.349     539.213     396.371
  H     -347.459     539.500     397.170
  H     -348.193     537.970     397.725
  H     -348.082     539.381     398.833
  H     -357.329     537.605     403.533
  H     -357.491     538.143     401.878
  H     -358.066     539.150     403.185

 3  4  5  6  7  8  9  10  11  12  13  23  27  28  29  30  32 0
 6-311+G(2d,p)
 ****
 34  35 0
 6-311+G(2d,p)
 ****
 1  2  14  15  16  17  18  19  20  21  22  24  25  26 0
 3-21G
 ****
 31  33  36  37  38  39  40  41  42  43  44  45  46 0
 3-21G
 ****


