%nproc=1
%NoSave
%Mem=1900MB
#P OB98/GEN NMR

erre ene a

0 1
  C      -85.822     -62.799    -185.399
  O      -85.960     -64.191    -185.591
  H      -84.836     -62.495    -185.760
  H      -85.894     -62.551    -184.337
  H      -86.583     -62.255    -185.963
  P      -87.329     -64.894    -185.135
  C      -86.024     -65.514    -182.985
  O      -87.216     -64.972    -183.533
  C      -85.617     -64.736    -181.737
  O      -85.406     -63.339    -182.034
  C      -86.650     -64.735    -180.616
  O      -86.745     -65.968    -179.924
  C      -86.091     -63.625    -179.745
  O      -84.948     -64.109    -179.019
  C      -85.678     -62.589    -180.817
  N      -86.711     -61.582    -181.054
  C      -86.504     -60.325    -180.475
  O      -85.503     -60.102    -179.797
  N      -87.458     -59.351    -180.650
  C      -88.535     -59.617    -181.322
  N      -89.449     -58.617    -181.458
  C      -88.803     -60.932    -181.932
  C      -87.860     -61.857    -181.764
  O      -87.664     -66.180    -185.819
  O      -88.443     -63.761    -185.323
  H      -85.268     -64.812    -178.424
  H      -89.314     -64.149    -185.065
  H      -89.728     -61.112    -182.457
  H      -87.987     -62.852    -182.176
  H      -84.748     -62.083    -180.533
  H      -86.806     -63.251    -179.011
  H      -87.633     -64.422    -180.990
  H      -84.655     -65.141    -181.397
  H      -89.238     -57.725    -181.029
  H      -85.243     -65.465    -183.750
  H      -90.348     -58.757    -181.899
  H      -86.182     -66.559    -182.704
  P      -88.049     -66.865    -180.210
  C      -88.444     -66.764    -177.631
  O      -89.001     -66.694    -178.933
  O      -87.494     -68.358    -180.087
  O      -88.723     -66.606    -181.521
  H      -87.308     -68.732    -180.971
  H      -89.218     -66.630    -176.904
  H      -87.709     -65.995    -177.516
  H      -87.985     -67.720    -177.490

 6  7  8  9  10  11  12  13  14  15  16  26  30  31  32  33  35 0
 6-311+G(2d,p)
 ****
 37  38 0
 6-311+G(2d,p)
 ****
 1  2  3  4  5  17  18  19  20  21  22  23  24  25 0
 3-21G
 ****
 27  28  29  34  36  39  40  41  42  43  44  45  46 0
 3-21G
 ****


