%nproc=1
%NoSave
%Mem=1900MB
#P OB98/GEN NMR

erre ene a

0 1
  C       52.996     -70.932      38.551
  O       53.072     -69.600      39.016
  P       51.888     -68.975      39.899
  C       49.495     -68.149      39.406
  O       50.726     -68.607      38.852
  C       48.983     -66.923      38.651
  O       48.782     -67.234      37.258
  C       47.647     -66.396      39.156
  O       47.821     -65.664      40.355
  C       47.191     -65.564      37.965
  O       47.796     -64.261      37.978
  C       47.712     -66.394      36.772
  N       46.659     -67.174      36.136
  C       46.264     -66.744      34.864
  O       46.772     -65.743      34.359
  N       45.265     -67.431      34.217
  C       44.698     -68.441      34.801
  N       43.708     -69.073      34.114
  C       45.064     -68.906      36.153
  C       46.040     -68.232      36.757
  O       52.293     -67.874      40.820
  O       51.291     -70.252      40.659
  H       47.498     -63.830      38.804
  H       51.890     -70.552      41.385
  H       44.555     -69.745      36.602
  H       46.370     -68.504      37.752
  H       48.157     -65.738      36.012
  H       46.108     -65.414      37.959
  H       46.952     -67.230      39.307
  H       49.749     -66.139      38.718
  H       43.466     -68.704      33.203
  H       49.667     -67.883      40.453
  H       43.177     -69.844      34.489
  H       48.760     -68.960      39.373
  P       46.590     -65.477      41.360
  C       44.159     -64.672      41.210
  O       45.415     -64.736      40.563
  O       46.931     -64.885      42.687
  O       46.023     -66.965      41.535
  H       45.834     -67.124      42.479
  H       43.563     -63.884      40.743
  H       44.276     -64.447      42.273
  H       43.640     -65.627      41.093
  H       53.874     -71.163      37.985
  H       52.132     -71.044      37.930
  H       52.925     -71.598      39.386

 3  4  5  6  7  8  9  10  11  12  13  23  27  28  29  30  32 0
 6-311+G(2d,p)
 ****
 34  35 0
 6-311+G(2d,p)
 ****
 1  2  14  15  16  17  18  19  20  21  22  24  25  26 0
 3-21G
 ****
 31  33  36  37  38  39  40  41  42  43  44  45  46 0
 3-21G
 ****


