%nproc=1
%NoSave
%Mem=1900MB
#P OB98/GEN NMR

erre ene a

0 1
  C     -899.238    -893.040    -794.748
  O     -898.028    -893.310    -794.076
  P     -897.868    -893.190    -792.477
  C     -896.948    -895.460    -791.638
  O     -898.108    -894.630    -791.820
  C     -896.938    -896.620    -792.655
  O     -896.728    -896.150    -793.995
  C     -895.828    -897.660    -792.435
  O     -896.128    -898.500    -791.324
  C     -895.798    -898.360    -793.781
  O     -896.838    -899.360    -793.881
  C     -896.088    -897.190    -794.754
  N     -894.888    -896.690    -795.396
  C     -894.378    -897.460    -796.466
  O     -894.928    -898.520    -796.776
  N     -893.288    -897.020    -797.140
  C     -892.668    -895.930    -796.744
  N     -891.578    -895.540    -797.455
  C     -893.128    -895.140    -795.587
  C     -894.218    -895.570    -794.959
  O     -898.688    -892.110    -791.866
  O     -896.298    -892.930    -792.234
  H     -896.678    -900.000    -793.182
  H     -896.178    -892.400    -791.435
  H     -892.558    -894.250    -795.252
  H     -894.608    -895.050    -794.096
  H     -896.808    -897.510    -795.527
  H     -894.868    -898.850    -793.968
  H     -894.888    -897.140    -792.256
  H     -897.918    -897.120    -792.611
  H     -891.308    -896.100    -798.259
  H     -896.948    -895.880    -790.616
  H     -891.048    -894.700    -797.246
  H     -896.048    -894.850    -791.776
  P     -895.528    -898.180    -789.869
  C     -897.748    -898.900    -788.816
  O     -896.758    -897.900    -788.880
  O     -894.448    -897.170    -789.830
  O     -894.998    -899.600    -789.370
  H     -894.228    -899.470    -788.786
  H     -898.298    -898.810    -787.868
  H     -897.318    -899.920    -788.875
  H     -898.468    -898.780    -789.654
  H     -899.103    -893.186    -795.799
  H     -899.531    -892.027    -794.564
  H     -900.000    -893.701    -794.391

 3  4  5  6  7  8  9  10  11  12  13  23  27  28  29  30  32 0
 6-311+G(2d,p)
 ****
 34  35 0
 6-311+G(2d,p)
 ****
 1  2  14  15  16  17  18  19  20  21  22  24  25  26 0
 3-21G
 ****
 31  33  36  37  38  39  40  41  42  43  44  45  46 0
 3-21G
 ****


