%nproc=1
%NoSave
%Mem=1900MB
#P OB98/GEN NMR

erre ene a

0 1
  C     -277.417     154.851    -235.118
  O     -276.751     156.099    -235.077
  H     -277.061     154.239    -234.283
  H     -277.189     154.334    -236.051
  H     -278.498     154.984    -235.018
  P     -277.234     157.262    -236.067
  C     -276.676     159.364    -234.677
  O     -276.304     158.537    -235.775
  C     -275.777     160.601    -234.629
  O     -274.419     160.214    -234.331
  C     -275.710     161.367    -235.947
  O     -276.887     162.132    -236.151
  C     -274.447     162.188    -235.730
  O     -274.713     163.340    -234.915
  C     -273.547     161.176    -234.978
  N     -272.585     160.503    -235.841
  C     -271.451     161.236    -236.206
  O     -271.275     162.406    -235.858
  N     -270.548     160.586    -236.996
  C     -270.690     159.333    -237.522
  O     -269.867     158.815    -238.267
  C     -271.916     158.614    -237.132
  C     -272.788     159.227    -236.324
  O     -278.702     157.547    -236.074
  O     -276.722     156.771    -237.502
  H     -275.317     163.909    -235.428
  H     -277.465     156.376    -237.997
  H     -269.732     161.106    -237.280
  H     -272.067     157.619    -237.532
  H     -273.703     158.711    -236.033
  H     -272.996     161.681    -234.176
  H     -274.018     162.550    -236.663
  H     -275.542     160.680    -236.783
  H     -276.133     161.250    -233.819
  H     -276.561     158.794    -233.751
  H     -277.728     159.651    -234.790
  P     -277.211     162.766    -237.583
  C     -279.710     163.007    -237.061
  O     -278.515     163.693    -237.415
  O     -277.281     161.791    -238.713
  O     -276.039     163.825    -237.810
  H     -275.404     163.487    -238.471
  H     -280.512     163.710    -236.975
  H     -279.571     162.508    -236.125
  H     -279.946     162.287    -237.817

 6  7  8  9  10  11  12  13  14  15  16  26  31  32  33  34  35 0
 6-311+G(2d,p)
 ****
 36  37 0
 6-311+G(2d,p)
 ****
 1  2  3  4  5  17  18  19  20  21  22  23  24  25 0
 3-21G
 ****
 27  28  29  30  38  39  40  41  42  43  44  45 0
 3-21G
 ****


