%nproc=1
%NoSave
%Mem=1900MB
#P OB98/GEN NMR

erre ene a

0 1
  C     -264.399     278.687     168.232
  O     -263.807     279.470     169.248
  H     -264.804     279.352     167.466
  H     -265.214     278.084     168.642
  H     -263.649     278.036     167.775
  P     -263.239     278.689     170.529
  C     -264.882     280.091     171.974
  O     -264.351     278.806     171.677
  C     -266.062     279.947     172.933
  O     -267.154     279.273     172.266
  C     -265.760     279.107     174.165
  O     -265.043     279.824     175.157
  C     -267.164     278.744     174.617
  O     -267.746     279.777     175.426
  C     -267.917     278.589     173.282
  N     -268.145     277.186     172.948
  C     -269.466     276.840     172.671
  O     -270.395     277.643     172.696
  N     -269.690     275.518     172.399
  C     -268.755     274.525     172.426
  O     -269.035     273.350     172.227
  C     -267.381     274.948     172.743
  C     -267.142     276.238     172.990
  O     -262.060     279.639     171.042
  O     -262.762     277.300     170.257
  H     -261.196     279.241     170.825
  H     -268.492     279.360     175.899
  H     -270.638     275.247     172.192
  H     -266.614     274.184     172.776
  H     -266.139     276.572     173.236
  H     -268.891     279.091     173.332
  H     -267.158     277.834     175.212
  H     -265.230     278.190     173.881
  H     -266.401     280.950     173.223
  H     -265.230     280.568     171.053
  H     -264.093     280.709     172.414
  P     -264.613     279.036     176.488
  C     -266.003     280.460     178.209
  O     -265.824     279.232     177.520
  O     -263.453     279.991     177.033
  O     -264.206     277.627     176.227
  H     -263.576     280.912     176.746
  H     -266.860     280.390     178.846
  H     -266.149     281.249     177.501
  H     -265.135     280.667     178.800

 6  7  8  9  10  11  12  13  14  15  16  27  31  32  33  34  35 0
 6-311+G(2d,p)
 ****
 36  37 0
 6-311+G(2d,p)
 ****
 1  2  3  4  5  17  18  19  20  21  22  23  24  25 0
 3-21G
 ****
 26  28  29  30  38  39  40  41  42  43  44  45 0
 3-21G
 ****


