%nproc=1
%NoSave
%Mem=1900MB
#P OB98/GEN NMR

erre ene a

0 1
  C      201.052    -316.908     201.927
  O      200.624    -316.815     200.583
  P      201.495    -317.538     199.448
  C      199.412    -317.261     197.907
  O      200.827    -317.199     198.029
  C      198.999    -317.139     196.433
  O      199.330    -315.791     195.958
  C      199.689    -318.136     195.492
  O      198.751    -318.464     194.458
  C      200.821    -317.318     194.910
  O      201.344    -317.854     193.712
  C      200.120    -315.958     194.761
  N      201.057    -314.849     194.577
  C      200.882    -314.040     193.456
  O      199.987    -314.198     192.630
  N      201.811    -313.051     193.288
  C      202.932    -312.860     194.042
  O      203.793    -312.032     193.761
  C      203.080    -313.750     195.210
  C      202.153    -314.688     195.420
  O      201.159    -319.092     199.656
  O      202.957    -317.272     199.522
  H      201.707    -318.737     193.918
  H      201.874    -319.532     200.155
  H      201.693    -312.447     192.486
  H      203.938    -313.606     195.843
  H      202.236    -315.376     196.260
  H      199.426    -315.989     193.913
  H      201.640    -317.269     195.641
  H      200.034    -319.046     196.006
  H      197.907    -317.233     196.368
  H      198.965    -316.449     198.482
  H      199.045    -318.204     198.331
  P      198.502    -320.028     194.149
  C      195.901    -319.763     194.022
  O      197.103    -320.117     193.373
  O      198.162    -320.572     195.617
  O      199.663    -320.711     193.500
  H      197.565    -319.980     196.106
  H      196.051    -318.939     194.725
  H      195.504    -320.626     194.562
  H      195.166    -319.445     193.267
  H      200.369    -316.377     202.556
  H      202.029    -316.481     202.021
  H      201.082    -317.936     202.221

 3  4  5  6  7  8  9  10  11  12  13  23  28  29  30  31  32 0
 6-311+G(2d,p)
 ****
 33  34 0
 6-311+G(2d,p)
 ****
 1  2  14  15  16  17  18  19  20  21  22  24  25  26 0
 3-21G
 ****
 27  35  36  37  38  39  40  41  42  43  44  45 0
 3-21G
 ****


