%nproc=1
%NoSave
%Mem=1900MB
#P OB98/GEN NMR

erre ene a

0 1
  C     -351.895    -197.161    -148.167
  O     -352.330    -195.952    -147.568
  P     -352.142    -194.589    -148.388
  C     -354.239    -195.103    -149.829
  O     -352.859    -194.766    -149.813
  C     -355.000    -194.231    -150.829
  O     -356.411    -194.572    -150.799
  C     -354.890    -192.730    -150.540
  O     -354.896    -192.006    -151.781
  C     -356.186    -192.411    -149.824
  O     -356.523    -191.029    -149.940
  C     -357.149    -193.360    -150.540
  N     -361.880    -191.888    -149.559
  C     -361.055    -191.541    -150.609
  N     -361.529    -190.609    -151.464
  N     -359.875    -192.066    -150.808
  C     -359.530    -192.981    -149.867
  C     -360.271    -193.418    -148.791
  C     -361.568    -192.820    -148.578
  O     -362.337    -193.063    -147.653
  N     -359.602    -194.381    -148.082
  C     -358.443    -194.500    -148.698
  N     -358.338    -193.646    -149.765
  O     -350.582    -194.602    -148.748
  O     -352.506    -193.353    -147.636
  H     -355.750    -190.523    -149.629
  H     -350.106    -193.963    -148.185
  H     -362.779    -191.448    -149.443
  H     -357.640    -195.163    -148.402
  H     -357.467    -192.955    -151.508
  H     -356.096    -192.655    -148.760
  H     -362.400    -190.119    -151.330
  H     -354.009    -192.443    -149.958
  H     -360.924    -190.305    -152.216
  H     -354.639    -194.457    -151.840
  H     -354.655    -194.950    -148.834
  H     -354.354    -196.162    -150.089
  P     -353.881    -190.766    -151.876
  C     -352.332    -192.504    -153.040
  O     -352.440    -191.403    -152.161
  O     -353.779    -190.255    -150.362
  O     -354.314    -189.689    -152.815
  H     -353.535    -189.310    -150.341
  H     -351.727    -192.211    -153.902
  H     -353.308    -192.852    -153.391
  H     -351.831    -193.327    -152.520
  H     -352.086    -197.977    -147.502
  H     -350.846    -197.102    -148.367
  H     -352.425    -197.316    -149.084

 3  4  5  6  7  8  9  10  11  12  23  26  30  31 0
 6-311+G(2d,p)
 ****
 33  35  36  37  38 0
 6-311+G(2d,p)
 ****
 1  2  13  14  15  16  17  18  19  20  21  22  24  25 0
 3-21G
 ****
 27  28  29  32  34  39  40  41  42  43  44  45  46  47  48  49 0
 3-21G
 ****


