%nproc=1
%NoSave
%Mem=1900MB
#P OB98/GEN NMR

erre ene a

0 1
  C     -319.481     870.112     523.256
  O     -319.882     869.782     521.929
  P     -320.072     871.009     520.908
  C     -317.614     871.836     521.002
  O     -318.656     871.303     520.205
  C     -316.254     871.388     520.453
  O     -316.134     869.944     520.431
  C     -315.998     871.836     519.021
  O     -315.682     873.219     518.969
  C     -314.854     870.903     518.625
  O     -313.612     871.388     519.158
  C     -315.244     869.603     519.341
  N     -314.513     865.754     516.033
  C     -313.646     866.522     516.748
  N     -313.921     867.518     517.605
  C     -315.243     867.713     517.698
  C     -316.249     867.022     517.036
  C     -315.836     866.006     516.168
  N     -316.723     865.238     515.428
  N     -317.498     867.501     517.394
  C     -317.248     868.489     518.234
  N     -315.904     868.648     518.465
  O     -320.291     872.261     521.874
  O     -321.221     870.830     519.963
  H     -313.738     871.535     520.113
  H     -321.225     872.556     521.837
  H     -312.589     866.292     516.612
  H     -318.003     869.109     518.716
  H     -314.372     869.089     519.784
  H     -314.729     870.807     517.543
  H     -316.883     871.627     518.390
  H     -315.475     871.795     521.116
  H     -317.724     871.504     522.040
  H     -316.339     864.587     514.765
  H     -317.703     865.467     515.455
  H     -317.699     872.930     521.013
  P     -316.535     874.142     517.965
  C     -319.038     874.711     517.809
  O     -318.019     874.111     518.602
  O     -316.676     873.189     516.696
  O     -315.960     875.490     517.716
  H     -316.919     872.280     516.944
  H     -319.989     874.592     518.336
  H     -319.095     874.224     516.832
  H     -318.830     875.785     517.693
  H     -319.390     869.216     523.834
  H     -320.215     870.751     523.702
  H     -318.538     870.617     523.229

 3  4  5  6  7  8  9  10  11  12  22  25  29  30  31  32 0
 6-311+G(2d,p)
 ****
 33  36  37 0
 6-311+G(2d,p)
 ****
 1  2  13  14  15  16  17  18  19  20  21  23  24  26 0
 3-21G
 ****
 27  28  34  35  38  39  40  41  42  43  44  45  46  47  48 0
 3-21G
 ****


