%nproc=1
%NoSave
%Mem=1900MB
#P OB98/GEN NMR

erre ene a

0 1
  C     -191.625     -15.861    -546.263
  O     -191.426     -14.539    -546.783
  P     -192.719     -13.583    -546.840
  C     -194.424     -12.790    -548.601
  O     -193.276     -13.569    -548.343
  C     -194.948     -13.007    -550.039
  O     -193.995     -12.537    -551.024
  C     -195.250     -14.482    -550.351
  O     -196.368     -14.508    -551.248
  C     -194.010     -14.920    -551.113
  O     -194.270     -16.086    -551.889
  C     -193.686     -13.644    -551.905
  N     -192.309     -13.595    -552.388
  C     -191.909     -14.596    -553.270
  O     -192.676     -15.521    -553.558
  N     -190.628     -14.561    -553.773
  C     -189.807     -13.634    -553.387
  N     -188.559     -13.648    -553.924
  C     -190.174     -12.582    -552.411
  C     -191.431     -12.626    -551.961
  O     -192.097     -12.118    -546.638
  O     -193.730     -13.893    -545.779
  H     -194.545     -16.806    -551.269
  H     -192.584     -11.636    -545.940
  H     -189.460     -11.835    -552.106
  H     -191.794     -11.903    -551.252
  H     -194.353     -13.559    -552.786
  H     -193.193     -15.147    -550.417
  H     -195.464     -15.087    -549.470
  H     -195.868     -12.421    -550.163
  H     -188.344     -14.383    -554.585
  H     -194.192     -11.719    -548.479
  H     -187.849     -12.988    -553.686
  H     -195.196     -13.017    -547.862
  P     -197.532     -15.577    -550.965
  C     -198.046     -17.944    -551.839
  O     -197.141     -16.853    -551.872
  O     -198.743     -14.947    -551.810
  O     -197.927     -15.852    -549.552
  H     -199.556     -15.482    -551.662
  H     -197.725     -18.681    -552.580
  H     -199.055     -17.611    -552.077
  H     -198.014     -18.415    -550.850
  H     -190.697     -16.393    -546.277
  H     -192.342     -16.377    -546.866
  H     -191.985     -15.798    -545.257

 3  4  5  6  7  8  9  10  11  12  13  21  23  27  28  29  30  32 0
 6-311+G(2d,p)
 ****
 34  35 0
 6-311+G(2d,p)
 ****
 1  2  14  15  16  17  18  19  20  22  24  25  26 0
 3-21G
 ****
 31  33  36  37  38  39  40  41  42  43  44  45  46 0
 3-21G
 ****


