%nproc=1
%NoSave
%Mem=1900MB
#P OB98/GEN NMR

erre ene a

0 1
  C      -24.796      86.154      35.994
  O      -25.179      85.332      34.904
  P      -24.134      84.947      33.749
  C      -22.865      86.343      32.002
  O      -24.003      86.271      32.853
  C      -22.655      87.778      31.528
  O      -22.465      88.620      32.690
  C      -21.426      88.020      30.653
  O      -21.619      87.742      29.274
  C      -21.235      89.519      30.841
  O      -22.172      90.236      30.017
  C      -21.579      89.706      32.321
  N      -17.434      92.311      33.803
  C      -18.441      92.619      32.955
  N      -19.500      91.864      32.598
  C      -19.483      90.690      33.250
  C      -18.529      90.237      34.145
  C      -17.461      91.108      34.420
  N      -16.448      90.800      35.301
  N      -18.843      88.969      34.594
  C      -19.974      88.672      33.988
  N      -20.405      89.683      33.173
  O      -24.459      83.695      33.013
  O      -22.724      84.880      34.499
  H      -22.058      89.906      29.105
  H      -22.076      84.402      33.947
  H      -18.387      93.604      32.498
  H      -20.511      87.743      34.106
  H      -22.116      90.642      32.513
  H      -20.236      89.860      30.557
  H      -20.548      87.493      31.045
  H      -23.568      88.110      31.018
  H      -23.045      85.700      31.133
  H      -15.798      91.534      35.534
  H      -16.554      89.979      35.880
  H      -21.986      85.969      32.531
  P      -20.301      87.513      28.381
  C      -18.449      89.214      27.656
  O      -19.806      88.979      27.960
  O      -20.470      86.548      27.262
  O      -19.215      87.055      29.464
  H      -18.956      87.737      30.105
  H      -18.351      90.222      27.241
  H      -18.085      88.497      26.917
  H      -17.844      89.149      28.564
  H      -25.631      86.291      36.648
  H      -24.471      87.105      35.627
  H      -23.996      85.687      36.529

 3  4  5  6  7  8  9  10  11  12  22  25  29  30  31  32 0
 6-311+G(2d,p)
 ****
 33  36  37 0
 6-311+G(2d,p)
 ****
 1  2  13  14  15  16  17  18  19  20  21  23  24  26 0
 3-21G
 ****
 27  28  34  35  38  39  40  41  42  43  44  45  46  47  48 0
 3-21G
 ****


