%nproc=1
%NoSave
%Mem=1900MB
#P OB98/GEN NMR

erre ene a

0 1
  C      101.992      93.730      49.796
  O      100.724      94.285      50.086
  H      102.692      94.030      50.581
  H      102.357      94.109      48.837
  H      101.935      92.640      49.772
  P       99.502      93.813      49.151
  C       98.973      91.704      50.627
  O       98.541      92.951      50.108
  C       98.095      91.284      51.807
  O       98.185      92.297      52.839
  C       96.617      91.111      51.449
  O       96.091      90.010      52.198
  C       95.983      92.409      51.923
  O       94.589      92.258      52.182
  C       96.850      92.746      53.146
  N       96.826      94.173      53.468
  C       96.515      94.517      54.787
  O       96.255      93.641      55.614
  N       96.461      95.845      55.129
  C       96.635      96.758      54.219
  N       96.549      98.056      54.622
  C       96.916      96.438      52.804
  C       97.005      95.144      52.504
  O      100.208      92.715      48.225
  O       98.837      94.924      48.405
  H       94.457      91.407      52.661
  H      100.821      92.136      48.706
  H       97.038      97.232      52.079
  H       97.216      94.822      51.489
  H       96.506      92.189      54.028
  H       96.096      93.184      51.156
  H       96.445      90.949      50.386
  H       98.510      90.362      52.234
  H       96.337      98.229      55.599
  H      100.016      91.770      50.954
  H       96.611      98.842      53.992
  H       98.912      90.964      49.824
  P       95.589      88.703      51.417
  C       97.634      87.253      50.813
  O       96.585      87.485      51.741
  O       95.266      88.894      49.970
  O       94.265      88.287      52.236
  H       93.597      87.975      51.593
  H       98.222      86.421      51.140
  H       98.252      88.124      50.749
  H       97.218      87.039      49.851

 6  7  8  9  10  11  12  13  14  15  16  26  30  31  32  33  35 0
 6-311+G(2d,p)
 ****
 37  38 0
 6-311+G(2d,p)
 ****
 1  2  3  4  5  17  18  19  20  21  22  23  24  25 0
 3-21G
 ****
 27  28  29  34  36  39  40  41  42  43  44  45  46 0
 3-21G
 ****


