%nproc=1
%NoSave
%Mem=1900MB
#P OB98/GEN NMR

erre ene a

0 1
  C      -13.792    -403.950      57.797
  O      -13.149    -402.884      57.124
  H      -13.118    -404.340      58.563
  H      -14.022    -404.748      57.088
  H      -14.711    -403.601      58.278
  P      -14.033    -402.004      56.120
  C      -15.963    -401.620      57.828
  O      -15.565    -402.179      56.582
  C      -17.238    -400.797      57.643
  O      -18.282    -401.669      57.126
  C      -17.768    -400.165      58.942
  O      -18.328    -398.882      58.631
  C      -18.883    -401.116      59.355
  O      -19.854    -400.520      60.205
  C      -19.433    -401.518      57.986
  N      -20.218    -402.751      58.037
  C      -21.589    -402.630      58.252
  O      -22.196    -401.569      58.322
  N      -22.269    -403.812      58.397
  C      -21.727    -405.068      58.376
  O      -22.389    -406.089      58.532
  C      -20.271    -405.126      58.149
  C      -19.593    -403.989      57.997
  O      -13.964    -402.841      54.755
  O      -13.597    -400.588      55.947
  H      -13.202    -402.554      54.219
  H      -20.529    -401.200      60.401
  H      -23.257    -403.743      58.555
  H      -19.805    -406.104      58.132
  H      -18.523    -403.993      57.855
  H      -20.050    -400.714      57.571
  H      -18.463    -401.976      59.875
  H      -17.010    -400.056      59.730
  H      -17.059    -400.026      56.880
  H      -15.164    -400.965      58.198
  H      -16.126    -402.425      58.551
  P      -17.360    -397.612      58.724
  C      -16.132    -398.173      56.479
  O      -16.049    -398.001      57.887
  O      -16.894    -397.688      60.250
  O      -18.028    -396.338      58.327
  H      -16.792    -398.599      60.568
  H      -15.167    -398.428      56.093
  H      -16.467    -397.263      56.028
  H      -16.824    -398.958      56.256

 6  7  8  9  10  11  12  13  14  15  16  27  31  32  33  34  35 0
 6-311+G(2d,p)
 ****
 36  37 0
 6-311+G(2d,p)
 ****
 1  2  3  4  5  17  18  19  20  21  22  23  24  25 0
 3-21G
 ****
 26  28  29  30  38  39  40  41  42  43  44  45 0
 3-21G
 ****


