%nproc=1
%NoSave
%Mem=1900MB
#P OB98/GEN NMR

erre ene a

0 1
  C      290.648     608.920    1083.769
  O      291.203     608.155    1084.825
  H      289.801     609.482    1084.157
  H      290.298     608.264    1082.966
  H      291.399     609.615    1083.382
  P      292.443     607.213    1084.457
  C      294.103     608.182    1086.184
  O      293.271     607.085    1085.829
  C      294.091     608.411    1087.697
  O      292.972     609.269    1088.036
  C      293.932     607.101    1088.494
  O      294.748     607.176    1089.674
  C      292.463     607.102    1088.899
  O      292.220     606.339    1090.076
  C      292.180     608.602    1089.035
  N      287.819     609.747    1091.433
  C      289.091     609.644    1091.878
  N      290.203     609.347    1091.169
  C      289.904     609.198    1089.851
  C      288.655     609.270    1089.271
  C      287.575     609.548    1090.121
  N      286.269     609.635    1089.690
  N      288.752     609.012    1087.902
  C      290.039     608.801    1087.683
  N      290.769     608.892    1088.844
  O      293.252     607.638    1083.270
  O      291.748     605.775    1084.338
  H      292.501     606.890    1090.845
  H      291.113     605.631    1085.068
  H      289.243     609.810    1092.942
  H      290.481     608.580    1086.716
  H      292.461     608.986    1090.026
  H      291.869     606.672    1088.072
  H      294.206     606.214    1087.910
  H      295.004     608.943    1087.981
  H      293.750     609.098    1085.677
  H      285.559     609.859    1090.359
  H      286.069     609.511    1088.707
  H      295.117     607.965    1085.828
  P      295.078     605.805    1090.458
  C      297.649     605.653    1090.156
  O      296.569     605.918    1091.067
  O      294.768     604.544    1089.718
  O      294.169     605.940    1091.777
  H      293.821     605.056    1092.000
  H      298.582     605.758    1090.669
  H      297.609     606.348    1089.343
  H      297.560     604.656    1089.777

 6  7  8  9  10  11  12  13  14  15  25  28  32  33  34  35 0
 6-311+G(2d,p)
 ****
 36  39  40 0
 6-311+G(2d,p)
 ****
 1  2  3  4  5  16  17  18  19  20  21  22  23  24 0
 3-21G
 ****
 26  27  29  30  31  37  38  41  42  43  44  45  46  47 0
 3-21G
 ****
 48 0
 3-21G
 ****


