%nproc=1
%NoSave
%Mem=1900MB
#P OB98/GEN NMR

erre ene a

0 1
  C      159.507      44.546      11.218
  O      160.361      43.623      11.863
  H      159.321      45.383      11.900
  H      158.550      44.073      10.979
  H      159.968      44.933      10.306
  P      160.927      42.379      11.023
  C      159.849      40.734       9.354
  O      159.658      41.546      10.508
  C      159.132      39.398       9.531
  O      159.931      38.512      10.347
  C      157.791      39.509      10.246
  O      156.788      40.032       9.396
  C      157.581      38.070      10.687
  O      157.049      37.276       9.619
  C      159.019      37.625      11.035
  N      159.263      37.630      12.477
  C      158.941      36.460      13.158
  O      158.485      35.457      12.610
  N      159.100      36.499      14.520
  C      159.406      37.611      15.254
  O      159.297      37.664      16.476
  C      159.796      38.800      14.478
  C      159.696      38.758      13.146
  O      161.987      41.572      11.698
  O      161.478      43.054       9.677
  H      162.451      43.125       9.729
  H      156.121      37.575       9.501
  H      158.826      35.666      15.026
  H      160.118      39.681      15.023
  H      159.946      39.635      12.552
  H      159.213      36.615      10.651
  H      156.889      38.006      11.529
  H      157.897      40.140      11.138
  H      159.011      38.935       8.541
  H      160.925      40.557       9.222
  H      159.466      41.267       8.476
  P      155.543      40.832      10.008
  C      153.523      40.329      11.519
  O      154.572      39.777      10.729
  O      154.862      41.767       9.065
  O      156.170      41.634      11.247
  H      155.900      42.573      11.186
  H      152.945      39.537      11.947
  H      152.894      40.937      10.902
  H      153.942      40.928      12.301

 6  7  8  9  10  11  12  13  14  15  16  27  31  32  33  34  35 0
 6-311+G(2d,p)
 ****
 36  37 0
 6-311+G(2d,p)
 ****
 1  2  3  4  5  17  18  19  20  21  22  23  24  25 0
 3-21G
 ****
 26  28  29  30  38  39  40  41  42  43  44  45 0
 3-21G
 ****


