%nproc=1
%NoSave
%Mem=1900MB
#P OB98/GEN NMR

erre ene a

0 1
  C     -167.338     424.031    -425.885
  O     -167.418     422.861    -425.085
  P     -167.525     421.446    -425.840
  C     -169.968     421.936    -426.541
  O     -168.650     421.617    -426.976
  C     -170.994     421.566    -427.606
  O     -172.329     421.704    -427.042
  C     -170.937     422.432    -428.871
  O     -171.061     421.597    -430.032
  C     -172.191     423.287    -428.778
  O     -172.639     423.728    -430.059
  C     -173.134     422.310    -428.075
  N     -177.598     424.430    -429.166
  C     -176.753     423.689    -429.967
  N     -177.122     423.544    -431.257
  N     -175.638     423.141    -429.546
  C     -175.412     423.345    -428.224
  C     -176.173     424.054    -427.323
  C     -177.375     424.704    -427.820
  O     -178.114     425.443    -427.179
  N     -175.622     424.023    -426.066
  C     -174.525     423.299    -426.211
  N     -174.324     422.908    -427.506
  O     -168.225     420.512    -424.747
  O     -166.228     420.870    -426.296
  H     -171.966     424.346    -430.393
  H     -167.668     419.726    -424.578
  H     -178.434     424.845    -429.542
  H     -173.832     423.068    -425.407
  H     -173.456     421.522    -428.767
  H     -171.983     424.170    -428.160
  H     -177.981     423.903    -431.638
  H     -170.025     423.045    -428.956
  H     -176.529     422.981    -431.857
  H     -170.867     420.503    -427.862
  H     -170.037     423.010    -426.335
  H     -170.174     421.389    -425.613
  P     -169.877     421.701    -431.113
  C     -171.230     423.481    -432.459
  O     -170.027     423.147    -431.789
  O     -170.339     420.689    -432.268
  O     -168.528     421.367    -430.564
  H     -169.567     420.374    -432.773
  H     -172.018     422.730    -432.291
  H     -171.031     423.554    -433.531
  H     -171.588     424.448    -432.093
  H     -167.272     424.892    -425.253
  H     -168.212     424.105    -426.497
  H     -166.470     423.978    -426.508

 3  4  5  6  7  8  9  10  11  12  23  26  30  31  33  0
 6-311+G(2d,p)
 ****
 35  36  37  38 0
 6-311+G(2d,p)
 ****
 1  2  13  14  15  16  17  18  19  20  21  22  24  25  27  28  29 0
 3-21G
 ****
 32  34  39  40  41  42  43  44  45  46  47  48  49 0
 3-21G
 ****


