%nproc=1
%NoSave
%Mem=1900MB
#P OB98/GEN NMR

erre ene a

0 1
  C      -32.681    -281.933    -208.450
  O      -31.283    -281.829    -208.604
  P      -30.651    -280.823    -209.681
  C      -29.390    -279.353    -207.985
  O      -29.273    -280.292    -209.047
  C      -28.019    -279.085    -207.365
  O      -27.604    -280.186    -206.514
  C      -26.893    -278.957    -208.380
  O      -26.931    -277.847    -209.252
  C      -25.670    -279.096    -207.490
  O      -25.359    -277.866    -206.833
  C      -26.159    -280.147    -206.459
  N      -25.571    -281.467    -206.707
  C      -24.184    -281.495    -206.835
  O      -23.468    -280.496    -206.755
  N      -23.635    -282.724    -207.099
  C      -24.329    -283.885    -207.285
  O      -23.774    -284.945    -207.563
  C      -25.791    -283.788    -207.154
  C      -26.337    -282.599    -206.876
  O      -31.568    -279.747    -210.158
  O      -30.137    -281.802    -210.840
  H      -25.167    -277.203    -207.525
  H      -29.473    -282.454    -210.557
  H      -22.637    -282.766    -207.211
  H      -26.366    -284.694    -207.283
  H      -27.414    -282.503    -206.775
  H      -25.892    -279.838    -205.440
  H      -24.784    -279.392    -208.058
  H      -26.917    -279.842    -209.032
  H      -28.096    -278.200    -206.729
  H      -30.053    -279.763    -207.217
  H      -29.844    -278.428    -208.361
  P      -26.531    -277.931    -210.802
  C      -28.225    -276.056    -211.382
  O      -26.902    -276.532    -211.497
  O      -26.909    -279.180    -211.530
  O      -24.926    -277.841    -210.722
  H      -24.543    -278.348    -211.462
  H      -28.312    -275.121    -211.946
  H      -28.470    -275.852    -210.334
  H      -28.933    -276.779    -211.799
  H      -32.904    -282.651    -207.689
  H      -33.119    -282.246    -209.375
  H      -33.081    -280.981    -208.170

 3  4  5  6  7  8  9  10  11  12  13  23  28  29  30  31  32 0
 6-311+G(2d,p)
 ****
 33  34 0
 6-311+G(2d,p)
 ****
 1  2  14  15  16  17  18  19  20  21  22  24  25  26  27 0
 3-21G
 ****
 35  36  37  38  39  40  41  42  43  44  45 0
 3-21G
 ****


