%nproc=1
%NoSave
%Mem=1900MB
#P OB98/GEN NMR

erre ene a

0 1
  C     -150.061     157.073    -199.905
  O     -150.279     156.543    -201.222
  P     -151.323     155.363    -201.535
  C     -149.680     153.625    -202.494
  O     -150.779     154.482    -202.761
  C     -148.700     153.571    -203.674
  O     -149.328     152.896    -204.812
  C     -148.218     154.947    -204.164
  O     -146.836     154.796    -204.513
  C     -149.080     155.165    -205.397
  O     -148.576     156.148    -206.282
  C     -149.090     153.737    -205.966
  N     -150.086     153.482    -207.003
  C     -150.029     154.269    -208.161
  O     -149.215     155.178    -208.282
  N     -150.933     154.009    -209.169
  C     -151.811     153.072    -209.029
  N     -152.662     152.864    -210.073
  C     -151.914     152.232    -207.827
  C     -151.034     152.489    -206.863
  O     -152.727     155.845    -201.727
  O     -151.241     154.371    -200.281
  H     -152.124     154.009    -200.100
  H     -148.563     157.001    -205.807
  H     -152.659     151.456    -207.752
  H     -151.022     151.900    -205.948
  H     -148.093     153.490    -206.342
  H     -150.081     155.482    -205.076
  H     -148.310     155.739    -203.416
  H     -147.850     152.951    -203.377
  H     -152.554     153.450    -210.893
  H     -150.061     152.614    -202.303
  H     -153.376     152.155    -210.078
  H     -149.168     153.970    -201.589
  P     -145.708     155.008    -203.389
  C     -143.453     155.201    -204.677
  O     -144.343     154.382    -203.945
  O     -146.137     153.926    -202.284
  O     -145.632     156.368    -202.772
  H     -145.810     154.210    -201.411
  H     -142.437     155.016    -204.330
  H     -143.672     156.261    -204.562
  H     -143.517     154.936    -205.742
  H     -149.323     157.847    -199.950
  H     -149.720     156.292    -199.258
  H     -150.977     157.475    -199.526

 3  4  5  6  7  8  9  10  11  12  13  24  27  28  29  30  32 0
 6-311+G(2d,p)
 ****
 34  35 0
 6-311+G(2d,p)
 ****
 1  2  14  15  16  17  18  19  20  21  22  23  25  26 0
 3-21G
 ****
 31  33  36  37  38  39  40  41  42  43  44  45  46 0
 3-21G
 ****


