%nproc=1
%NoSave
%Mem=1900MB
#P OB98/GEN NMR

erre ene a

0 1
  C     1125.512     690.639     644.422
  O     1126.278     689.449     644.501
  H     1124.853     690.671     645.285
  H     1124.898     690.627     643.515
  H     1126.160     691.504     644.423
  P     1127.286     689.149     643.284
  C     1129.479     689.343     644.616
  O     1128.628     689.960     643.664
  C     1130.766     690.172     644.780
  O     1131.573     690.014     643.585
  C     1130.536     691.675     644.966
  O     1131.531     692.203     645.874
  C     1130.783     692.257     643.616
  O     1131.109     693.629     643.635
  C     1131.854     691.313     643.092
  N     1132.861     694.234     639.011
  C     1133.035     694.438     640.352
  N     1132.766     693.602     641.359
  C     1132.314     692.415     640.879
  C     1132.098     692.069     639.578
  C     1132.365     693.039     638.579
  N     1132.152     692.866     637.250
  N     1131.576     690.764     639.491
  C     1131.496     690.365     640.768
  N     1131.911     691.336     641.632
  O     1126.756     689.433     641.924
  O     1127.712     687.637     643.566
  H     1131.967     693.716     644.107
  H     1127.935     687.492     644.492
  H     1133.443     695.411     640.627
  H     1131.146     689.393     641.070
  H     1132.876     691.631     643.447
  H     1129.849     692.159     642.998
  H     1129.522     691.901     645.372
  H     1131.348     689.732     645.622
  H     1129.729     688.339     644.339
  H     1132.401     693.616     636.628
  H     1131.793     691.971     636.910
  H     1128.946     689.313     645.595
  P     1131.037     692.928     647.221
  C     1131.161     690.817     648.698
  O     1130.315     691.843     648.191
  O     1130.248     694.179     647.035
  O     1132.405     693.226     648.032
  H     1132.387     694.132     648.354
  H     1130.591     690.160     649.321
  H     1131.950     691.256     649.271
  H     1131.578     690.263     647.883

 6  7  8  9  10  11  12  13  14  15  25  28  32  33  34  35 0
 6-311+G(2d,p)
 ****
 36  39  40 0
 6-311+G(2d,p)
 ****
 1  2  3  4  5  16  17  18  19  20  21  22  23  24 0
 3-21G
 ****
 26  27  29  30  31  37  38  41  42  43  44  45  46  47 0
 3-21G
 ****
 48 0
 3-21G
 ****


