%nproc=1
%NoSave
%Mem=1900MB
#P OB98/GEN NMR

erre ene a

0 1
  C      114.042    -357.090     424.725
  O      113.597    -358.139     423.889
  H      113.243    -356.353     424.816
  H      114.919    -356.606     424.282
  H      114.290    -357.472     425.717
  P      114.616    -359.357     423.633
  C      114.617    -358.841     421.079
  O      114.360    -359.794     422.105
  C      114.526    -359.506     419.701
  O      115.570    -360.507     419.590
  C      113.186    -360.197     419.443
  O      112.756    -359.914     418.109
  C      113.494    -361.676     419.606
  O      112.595    -362.501     418.862
  C      114.963    -361.747     419.175
  N      115.648    -362.895     419.768
  C      115.189    -364.163     419.393
  O      114.248    -364.274     418.604
  N      115.776    -365.275     419.949
  C      116.694    -365.128     420.856
  N      117.219    -366.265     421.389
  C      117.172    -363.811     421.318
  C      116.612    -362.751     420.736
  O      113.970    -360.545     424.478
  O      116.040    -359.074     423.971
  H      112.777    -363.433     419.098
  H      114.601    -361.299     424.587
  H      117.928    -363.742     422.091
  H      116.904    -361.744     421.019
  H      115.045    -361.816     418.083
  H      113.400    -361.951     420.664
  H      112.407    -359.884     420.137
  H      114.742    -358.749     418.935
  H      116.857    -367.153     421.052
  H      115.617    -358.423     421.223
  H      117.915    -366.272     422.118
  H      113.874    -358.037     421.143
  P      111.346    -359.149     417.974
  C      110.350    -360.150     415.799
  O      111.002    -359.047     416.408
  O      111.695    -357.645     418.394
  O      110.265    -359.743     418.816
  H      111.432    -357.481     419.319
  H      110.187    -359.940     414.763
  H      109.410    -360.319     416.281
  H      110.962    -361.023     415.894

 6  7  8  9  10  11  12  13  14  15  16  26  30  31  32  33  35 0
 6-311+G(2d,p)
 ****
 37  38 0
 6-311+G(2d,p)
 ****
 1  2  3  4  5  17  18  19  20  21  22  23  24  25 0
 3-21G
 ****
 27  28  29  34  36  39  40  41  42  43  44  45  46 0
 3-21G
 ****


