%nproc=1
%NoSave
%Mem=1900MB
#P OB98/GEN NMR

erre ene a

0 1
  C      -87.030     -67.628    -146.709
  O      -87.427     -68.711    -145.859
  P      -88.988     -68.891    -145.551
  C      -90.585     -70.854    -144.951
  O      -89.258     -70.440    -145.241
  C      -90.612     -72.342    -144.592
  O      -90.287     -73.172    -145.730
  C      -89.620     -72.726    -143.502
  O      -90.136     -72.461    -142.204
  C      -89.511     -74.227    -143.719
  O      -90.641     -74.891    -143.117
  C      -89.575     -74.339    -145.246
  N      -86.570     -77.029    -148.299
  C      -87.869     -77.266    -147.894
  N      -88.456     -78.381    -148.380
  N      -88.532     -76.481    -147.085
  C      -87.826     -75.396    -146.694
  C      -86.535     -75.053    -147.024
  C      -85.807     -75.936    -147.908
  O      -84.651     -75.784    -148.289
  N      -86.161     -73.879    -146.424
  C      -87.228     -73.501    -145.747
  N      -88.261     -74.398    -145.864
  O      -89.661     -68.698    -146.992
  O      -89.533     -67.924    -144.554
  H      -90.550     -74.776    -142.152
  H      -90.568     -68.356    -146.891
  H      -86.105     -77.669    -148.919
  H      -87.301     -72.595    -145.162
  H      -90.128     -75.225    -145.579
  H      -88.614     -74.651    -143.258
  H      -88.022     -79.001    -149.045
  H      -88.645     -72.249    -143.665
  H      -89.420     -78.554    -148.121
  H      -91.627     -72.594    -144.258
  H      -91.239     -70.668    -145.807
  H      -90.979     -70.239    -144.137
  P      -89.478     -71.262    -141.367
  C      -90.198     -69.895    -139.281
  O      -90.465     -70.987    -140.138
  O      -89.690     -70.001    -142.328
  O      -88.042     -71.458    -141.021
  H      -88.962     -69.363    -142.208
  H      -91.050     -69.762    -138.610
  H      -90.056     -68.977    -139.855
  H      -89.307     -70.099    -138.681
  H      -85.966     -67.635    -146.822
  H      -87.336     -66.701    -146.272
  H      -87.492     -67.739    -147.668

 3  4  5  6  7  8  9  10  11  12  23  26  30  31 0
 6-311+G(2d,p)
 ****
 33  35  36  37  38 0
 6-311+G(2d,p)
 ****
 1  2  13  14  15  16  17  18  19  20  21  22  24  25 0
 3-21G
 ****
 27  28  29  32  34  39  40  41  42  43  44  45  46  47  48  49 0
 3-21G
 ****


