%nproc=1
%NoSave
%Mem=1900MB
#P OB98/GEN NMR

erre ene a

0 1
  C     -614.277     175.732     375.732
  O     -614.569     177.101     375.450
  P     -613.645     177.877     374.395
  C     -615.482     179.244     373.204
  O     -614.520     178.198     373.086
  C     -616.904     178.666     373.283
  O     -617.012     177.849     374.475
  C     -618.022     179.708     373.393
  O     -618.586     180.225     372.189
  C     -619.118     178.898     374.074
  O     -619.842     178.130     373.092
  C     -618.353     177.958     374.997
  N     -621.157     179.715     378.895
  C     -621.496     179.329     377.648
  N     -620.687     178.875     376.669
  C     -619.409     178.820     377.094
  C     -618.924     179.181     378.338
  C     -619.861     179.645     379.270
  N     -619.525     180.047     380.541
  N     -617.561     178.992     378.395
  C     -617.227     178.550     377.199
  N     -618.309     178.420     376.378
  O     -612.300     177.281     374.138
  O     -613.500     179.326     375.070
  H     -620.257     178.775     372.488
  H     -612.595     179.661     374.911
  H     -622.550     179.394     377.397
  H     -616.220     178.317     376.887
  H     -618.780     176.948     375.011
  H     -619.856     179.534     374.575
  H     -617.716     180.539     374.039
  H     -617.081     178.025     372.409
  H     -615.401     179.910     372.336
  H     -620.251     180.416     381.135
  H     -618.550     180.059     380.812
  H     -615.218     179.835     374.082
  P     -617.795     181.282     371.283
  C     -617.561     179.895     369.078
  O     -616.948     180.407     370.238
  O     -617.000     182.290     372.039
  O     -618.955     181.900     370.375
  H     -619.338     181.279     369.731
  H     -616.780     179.524     368.403
  H     -618.128     180.670     368.558
  H     -618.221     179.070     369.341
  H     -614.977     175.358     376.450
  H     -613.285     175.653     376.126
  H     -614.350     175.159     374.831

 3  4  5  6  7  8  9  10  11  12  22  25  29  30  31  32 0
 6-311+G(2d,p)
 ****
 33  36  37 0
 6-311+G(2d,p)
 ****
 1  2  13  14  15  16  17  18  19  20  21  23  24  26 0
 3-21G
 ****
 27  28  34  35  38  39  40  41  42  43  44  45  46  47  48 0
 3-21G
 ****


