%nproc=1
%NoSave
%Mem=1900MB
#P OB98/GEN NMR

erre ene a

0 1
  C      290.215     360.764      27.354
  O      290.087     361.986      28.049
  H      290.129     359.941      28.069
  H      291.193     360.706      26.868
  H      289.422     360.668      26.607
  P      290.249     363.322      27.175
  C      289.077     364.276      25.067
  O      289.295     363.142      25.895
  C      288.623     363.842      23.674
  O      289.676     363.123      22.996
  C      287.399     362.934      23.668
  O      286.202     363.691      23.745
  C      287.559     362.227      22.330
  O      287.102     363.064      21.245
  C      289.081     362.023      22.260
  N      292.510     358.351      21.721
  C      292.267     359.466      20.943
  N      293.035     359.615      19.842
  N      291.347     360.353      21.213
  C      290.618     360.050      22.312
  C      290.755     358.975      23.160
  C      291.815     358.030      22.882
  O      292.133     357.068      23.575
  N      289.833     359.025      24.179
  C      289.122     360.105      23.923
  N      289.555     360.759      22.795
  O      291.720     363.186      26.556
  O      290.096     364.603      27.924
  H      286.144     363.206      21.338
  H      292.135     364.070      26.537
  H      293.251     357.720      21.482
  H      288.296     360.461      24.522
  H      289.451     362.080      21.232
  H      286.965     361.312      22.283
  H      293.544     358.844      19.435
  H      287.450     362.194      24.478
  H      292.807     360.393      19.235
  H      288.428     364.753      23.092
  H      290.014     364.838      24.985
  H      288.313     364.915      25.519
  P      284.874     362.967      24.274
  C      284.167     361.818      26.491
  O      285.236     362.218      25.647
  O      284.689     361.764      23.232
  O      283.663     363.832      24.312
  H      283.955     361.970      22.617
  H      284.561     361.336      27.361
  H      283.531     361.138      25.963
  H      283.603     362.679      26.785

 6  7  8  9  10  11  12  13  14  15  26  29  33  34 0
 6-311+G(2d,p)
 ****
 36  38  39  40  41 0
 6-311+G(2d,p)
 ****
 1  2  3  4  5  16  17  18  19  20  21  22  23  24  25 0
 3-21G
 ****
 27  28  30  31  32  35  37  42  43  44  45  46  47 0
 3-21G
 ****
 48  49 0
 3-21G
 ****


