%nproc=1
%NoSave
%Mem=1900MB
#P OB98/GEN NMR

erre ene a

0 1
  C     -125.561      -6.715      -0.062
  O     -124.604      -6.917       0.957
  H     -126.423      -7.357       0.138
  H     -125.144      -6.985      -1.035
  H     -125.896      -5.675      -0.075
  P     -123.232      -6.087       0.894
  C     -122.050      -8.392       0.931
  O     -122.170      -7.132       0.289
  C     -120.878      -9.173       0.344
  O     -121.170      -9.633      -0.993
  C     -119.585      -8.378       0.200
  O     -118.922      -8.135       1.428
  C     -118.803      -9.313      -0.704
  O     -118.314     -10.429       0.060
  C     -119.903      -9.751      -1.698
  N     -119.916      -8.942      -2.916
  C     -119.432      -9.552      -4.079
  O     -119.012     -10.708      -4.054
  N     -119.402      -8.825      -5.245
  C     -119.798      -7.590      -5.244
  N     -119.740      -6.915      -6.425
  C     -120.296      -6.902      -4.039
  C     -120.331      -7.628      -2.924
  O     -122.817      -5.410       2.160
  O     -123.428      -5.081      -0.335
  H     -117.724     -10.936      -0.525
  H     -122.608      -4.535      -0.411
  H     -120.587      -5.864      -4.084
  H     -120.679      -7.190      -1.994
  H     -119.782     -10.806      -1.975
  H     -117.938      -8.838      -1.171
  H     -119.762      -7.440      -0.340
  H     -120.733     -10.066       0.967
  H     -119.393      -7.413      -7.235
  H     -122.990      -8.935       0.796
  H     -119.955      -5.930      -6.501
  H     -121.870      -8.252       2.001
  P     -117.760      -7.023       1.421
  C     -115.946      -8.733       2.197
  O     -116.384      -7.814       1.210
  O     -117.708      -6.545       2.944
  O     -117.971      -5.890       0.467
  H     -118.206      -5.713       3.062
  H     -115.016      -9.166       1.893
  H     -116.677      -9.505       2.315
  H     -115.815      -8.221       3.127

 6  7  8  9  10  11  12  13  14  15  16  26  30  31  32  33  35 0
 6-311+G(2d,p)
 ****
 37  38 0
 6-311+G(2d,p)
 ****
 1  2  3  4  5  17  18  19  20  21  22  23  24  25 0
 3-21G
 ****
 27  28  29  34  36  39  40  41  42  43  44  45  46 0
 3-21G
 ****


