%nproc=1
%NoSave
%Mem=1900MB
#P OB98/GEN NMR

erre ene a

0 1
  C     -237.328    -276.096    -161.503
  O     -238.603    -275.577    -161.818
  H     -236.609    -275.723    -162.235
  H     -237.338    -277.188    -161.548
  H     -237.018    -275.766    -160.506
  P     -239.860    -276.023    -160.930
  C     -241.109    -273.763    -160.957
  O     -241.101    -275.119    -161.396
  C     -240.494    -272.858    -162.030
  O     -241.285    -272.999    -163.236
  C     -240.495    -271.378    -161.621
  O     -239.212    -270.769    -161.728
  C     -241.638    -270.791    -162.444
  O     -241.515    -269.409    -162.710
  C     -241.666    -271.686    -163.687
  N     -242.964    -271.729    -164.354
  C     -243.126    -270.938    -165.489
  O     -242.260    -270.219    -165.979
  N     -244.362    -270.997    -166.081
  C     -245.426    -271.738    -165.655
  O     -246.509    -271.753    -166.227
  C     -245.202    -272.529    -164.433
  C     -244.003    -272.488    -163.850
  O     -239.629    -276.055    -159.456
  O     -240.240    -277.472    -161.496
  H     -242.274    -269.155    -163.275
  H     -239.948    -278.157    -160.863
  H     -244.489    -270.442    -166.913
  H     -246.027    -273.117    -164.059
  H     -243.801    -273.061    -162.947
  H     -240.930    -271.351    -164.419
  H     -242.571    -270.931    -161.885
  H     -240.736    -271.268    -160.555
  H     -239.483    -273.213    -162.256
  H     -240.528    -273.707    -160.033
  H     -242.139    -273.450    -160.753
  P     -238.074    -270.823    -160.611
  C     -236.162    -271.089    -162.400
  O     -236.687    -270.391    -161.277
  O     -238.059    -272.043    -159.754
  O     -238.417    -269.566    -159.660
  H     -238.136    -269.823    -158.755
  H     -235.232    -270.647    -162.692
  H     -236.856    -271.030    -163.213
  H     -236.003    -272.115    -162.140

 6  7  8  9  10  11  12  13  14  15  16  26  31  32  33  34  35 0
 6-311+G(2d,p)
 ****
 36  37 0
 6-311+G(2d,p)
 ****
 1  2  3  4  5  17  18  19  20  21  22  23  24  25 0
 3-21G
 ****
 27  28  29  30  38  39  40  41  42  43  44  45 0
 3-21G
 ****


