%nproc=1
%NoSave
%Mem=1900MB
#P OB98/GEN NMR

erre ene a

0 1
  C       15.547     -18.191     -57.884
  O       14.542     -18.518     -58.829
  P       13.190     -19.189     -58.282
  C       12.590     -21.621     -57.474
  O       13.521     -20.746     -58.093
  C       12.737     -23.035     -58.044
  O       12.367     -23.043     -59.440
  C       14.153     -23.595     -57.996
  O       14.503     -24.036     -56.694
  C       14.069     -24.702     -59.041
  O       13.452     -25.872     -58.478
  C       13.142     -24.069     -60.099
  N       13.864     -23.528     -61.251
  C       14.677     -24.423     -61.940
  O       14.798     -25.605     -61.624
  N       15.367     -23.903     -63.004
  C       15.373     -22.595     -63.397
  O       16.043     -22.174     -64.331
  C       14.519     -21.691     -62.608
  C       13.817     -22.191     -61.588
  O       12.278     -19.122     -59.594
  O       12.634     -18.494     -57.086
  H       12.812     -19.131     -60.408
  H       13.432     -26.542     -59.190
  H       15.945     -24.537     -63.536
  H       14.507     -20.644     -62.883
  H       13.192     -21.538     -60.991
  H       12.419     -24.811     -60.462
  H       15.053     -24.999     -59.422
  H       14.868     -22.831     -58.330
  H       12.045     -23.695     -57.504
  H       11.578     -21.253     -57.660
  H       12.768     -21.623     -56.393
  P       15.874     -23.449     -56.081
  C       18.368     -23.581     -56.847
  O       17.060     -24.099     -56.938
  O       15.934     -24.213     -54.674
  O       15.895     -21.958     -55.979
  H       15.683     -25.149     -54.741
  H       19.073     -24.342     -57.196
  H       18.622     -23.313     -55.817
  H       18.457     -22.698     -57.485
  H       16.383     -17.755     -58.389
  H       15.861     -19.079     -57.376
  H       15.155     -17.493     -57.174

 3  4  5  6  7  8  9  10  11  12  13  24  28  29  30  31  32 0
 6-311+G(2d,p)
 ****
 33  34 0
 6-311+G(2d,p)
 ****
 1  2  14  15  16  17  18  19  20  21  22  23  25  26  27 0
 3-21G
 ****
 35  36  37  38  39  40  41  42  43  44  45 0
 3-21G
 ****


