%nproc=1
%NoSave
%Mem=1900MB
#P OB98/GEN NMR

erre ene a

0 1
  C      776.373    -312.270     909.366
  O      777.615    -311.848     908.845
  H      776.250    -313.339     909.175
  H      775.558    -311.733     908.872
  H      776.326    -312.099     910.446
  P      778.104    -310.367     909.219
  C      779.447    -309.838     907.062
  O      778.284    -309.581     907.828
  C      779.486    -308.913     905.841
  O      778.304    -309.165     905.030
  C      779.479    -307.411     906.196
  O      780.295    -306.728     905.249
  C      778.026    -307.014     905.993
  O      777.837    -305.633     905.742
  C      777.656    -307.900     904.790
  N      776.212    -308.071     904.642
  C      775.635    -307.625     903.462
  O      776.261    -307.165     902.497
  N      774.264    -307.701     903.397
  C      773.444    -308.156     904.392
  O      772.227    -308.186     904.285
  C      774.108    -308.607     905.624
  C      775.445    -308.541     905.691
  O      779.609    -310.604     909.711
  O      777.277    -309.652     910.233
  H      779.633    -310.775     910.672
  H      778.223    -305.439     904.863
  H      773.834    -307.381     902.549
  H      773.489    -308.958     906.434
  H      775.969    -308.851     906.592
  H      778.075    -307.481     903.864
  H      777.430    -307.292     906.871
  H      779.824    -307.202     907.219
  H      780.362    -309.163     905.231
  H      779.435    -310.884     906.710
  H      780.338    -309.686     907.680
  P      781.791    -306.351     905.698
  C      781.517    -303.934     904.715
  O      781.819    -304.751     905.840
  O      782.611    -306.648     904.349
  O      782.251    -307.125     906.897
  H      782.102    -306.433     903.550
  H      781.585    -302.903     904.994
  H      780.525    -304.147     904.375
  H      782.214    -304.137     903.929

 6  7  8  9  10  11  12  13  14  15  16  27  31  32  33  34  35 0
 6-311+G(2d,p)
 ****
 36  37 0
 6-311+G(2d,p)
 ****
 1  2  3  4  5  17  18  19  20  21  22  23  24  25 0
 3-21G
 ****
 26  28  29  30  38  39  40  41  42  43  44  45 0
 3-21G
 ****


