%nproc=1
%NoSave
%Mem=1900MB
#P OB98/GEN NMR

erre ene a

0 1
  C      285.567     432.510     318.850
  O      286.276     433.203     317.837
  P      287.606     433.992     318.269
  C      286.773     436.030     316.874
  O      287.296     435.560     318.110
  C      286.035     437.345     317.087
  O      284.770     437.102     317.741
  C      286.761     438.360     317.955
  O      287.823     438.990     317.247
  C      285.607     439.286     318.330
  O      285.325     440.185     317.251
  C      284.450     438.295     318.513
  N      281.058     438.070     322.350
  C      280.960     438.534     321.089
  N      281.907     438.579     320.128
  C      283.071     438.063     320.595
  C      283.320     437.578     321.862
  C      282.250     437.582     322.768
  N      282.349     437.107     324.064
  N      284.625     437.152     321.964
  C      285.156     437.368     320.784
  N      284.244     437.917     319.910
  O      288.626     433.690     317.066
  O      288.186     433.588     319.597
  H      284.656     440.820     317.572
  H      289.541     433.626     317.386
  H      279.979     438.927     320.789
  H      286.182     437.162     320.501
  H      283.494     438.684     318.145
  H      285.823     439.893     319.221
  H      287.160     437.867     318.866
  H      285.815     437.777     316.090
  H      286.086     435.292     316.465
  H      281.591     437.287     324.682
  H      283.278     436.866     324.404
  H      287.602     436.154     316.164
  P      288.836     439.906     318.082
  C      290.292     440.053     315.976
  O      289.581     440.776     316.954
  O      289.959     438.853     318.520
  O      288.204     440.689     319.192
  H      290.258     438.310     317.763
  H      290.721     440.752     315.235
  H      289.636     439.338     315.451
  H      291.128     439.499     316.441
  H      284.709     432.034     318.423
  H      285.253     433.202     319.603
  H      286.204     431.771     319.289

 3  4  5  6  7  8  9  10  11  12  22  25  29  30  31  32 0
 6-311+G(2d,p)
 ****
 33  36  37 0
 6-311+G(2d,p)
 ****
 1  2  13  14  15  16  17  18  19  20  21  23  24  26 0
 3-21G
 ****
 27  28  34  35  38  39  40  41  42  43  44  45  46  47  48 0
 3-21G
 ****


