%nproc=1
%NoSave
%Mem=1900MB
#P OB98/GEN NMR

erre ene a

0 1
  C       84.080    -617.477     240.221
  O       83.273    -616.718     239.334
  P       83.365    -617.019     237.778
  C       81.567    -615.158     237.461
  O       82.786    -615.721     237.013
  C       81.820    -613.939     238.350
  O       82.620    -612.969     237.657
  C       80.553    -613.210     238.751
  O       79.880    -613.833     239.851
  C       81.127    -611.869     239.180
  O       81.664    -611.952     240.513
  C       82.246    -611.659     238.160
  N       82.892    -607.133     235.968
  C       83.601    -607.752     236.986
  N       84.593    -606.989     237.552
  N       83.388    -608.931     237.422
  C       82.362    -609.564     236.780
  C       81.553    -609.066     235.757
  C       81.820    -607.723     235.289
  O       81.169    -607.121     234.433
  N       80.624    -609.998     235.346
  C       80.828    -611.038     236.130
  N       81.843    -610.819     237.041
  O       82.245    -618.117     237.519
  O       84.717    -617.474     237.309
  H       80.941    -612.180     241.112
  H       82.387    -618.577     236.657
  H       83.108    -606.186     235.677
  H       80.287    -611.952     236.073
  H       83.153    -611.205     238.613
  H       80.388    -611.060     239.202
  H       84.779    -606.032     237.299
  H       79.873    -613.060     237.907
  H       85.119    -607.394     238.336
  H       82.370    -614.288     239.235
  H       80.991    -615.916     238.010
  H       80.961    -614.866     236.569
  P       78.279    -613.868     239.825
  C       78.168    -616.153     241.038
  O       77.833    -614.774     241.048
  O       77.954    -614.742     238.528
  O       77.658    -612.488     239.743
  H       77.087    -614.497     238.144
  H       78.049    -616.564     242.042
  H       79.236    -616.276     240.738
  H       77.521    -616.692     240.343
  H       83.904    -617.156     241.226
  H       85.112    -617.333     239.976
  H       83.833    -618.514     240.129

 3  4  5  6  7  8  9  10  11  12  23  26  30  31 0
 6-311+G(2d,p)
 ****
 33  35  36  37  38 0
 6-311+G(2d,p)
 ****
 1  2  13  14  15  16  17  18  19  20  21  22  24  25 0
 3-21G
 ****
 27  28  29  32  34  39  40  41  42  43  44  45  46  47  48  49 0
 3-21G
 ****


