%nproc=1
%NoSave
%Mem=1900MB
#P OB98/GEN NMR

erre ene a

0 1
  C     -634.320     773.348    -414.642
  O     -633.482     773.302    -413.502
  H     -634.584     774.390    -414.828
  H     -635.233     772.774    -414.471
  H     -633.787     772.950    -415.507
  P     -633.006     771.838    -413.024
  C     -630.573     772.370    -413.732
  O     -631.704     771.527    -413.919
  C     -629.496     771.647    -412.905
  O     -629.095     770.443    -413.549
  C     -628.234     772.470    -412.668
  O     -628.401     773.351    -411.588
  C     -627.244     771.361    -412.351
  O     -627.385     770.975    -410.966
  C     -627.688     770.214    -413.266
  N     -624.814     767.131    -416.181
  C     -625.237     767.008    -414.908
  N     -625.953     767.903    -414.178
  C     -626.243     768.994    -414.899
  C     -625.857     769.260    -416.204
  C     -625.118     768.271    -416.872
  N     -624.675     768.380    -418.175
  N     -626.329     770.482    -416.619
  C     -627.029     770.933    -415.594
  N     -626.968     770.079    -414.516
  O     -634.058     770.790    -413.001
  O     -632.368     772.188    -411.586
  H     -626.914     770.121    -410.858
  H     -631.858     773.022    -411.636
  H     -624.969     766.091    -414.407
  H     -627.599     771.867    -415.587
  H     -627.629     769.236    -412.760
  H     -626.198     771.661    -412.483
  H     -627.916     772.984    -413.587
  H     -629.968     771.365    -411.946
  H     -630.862     773.299    -413.241
  H     -623.994     767.719    -418.499
  H     -624.801     769.271    -418.629
  H     -630.180     772.621    -414.731
  P     -627.381     774.564    -411.320
  C     -628.662     776.012    -413.025
  O     -627.408     775.422    -412.673
  O     -626.037     774.134    -410.853
  O     -628.135     775.504    -410.273
  H     -627.505     776.108    -409.846
  H     -628.556     776.556    -413.940
  H     -628.973     776.679    -412.248
  H     -629.395     775.243    -413.150

 6  7  8  9  10  11  12  13  14  15  25  28  32  33  34  35 0
 6-311+G(2d,p)
 ****
 36  39  40 0
 6-311+G(2d,p)
 ****
 1  2  3  4  5  16  17  18  19  20  21  22  23  24 0
 3-21G
 ****
 26  27  29  30  31  37  38  41  42  43  44  45  46  47 0
 3-21G
 ****
 48 0
 3-21G
 ****


