%nproc=1
%NoSave
%Mem=1900MB
#P OB98/GEN NMR

erre ene a

0 1
  C      379.072     164.074      15.785
  O      379.411     163.550      14.501
  P      379.256     161.973      14.262
  C      377.317     162.556      12.632
  O      378.462     161.749      12.890
  C      376.899     162.435      11.162
  O      377.708     163.271      10.300
  C      377.024     161.018      10.610
  O      375.897     160.218      10.942
  C      377.044     161.291       9.112
  O      375.700     161.504       8.636
  C      377.856     162.587       9.030
  N      381.595     163.309       5.695
  C      380.266     163.687       5.640
  N      379.882     164.375       4.541
  N      379.394     163.435       6.579
  C      379.931     162.758       7.626
  C      381.227     162.327       7.800
  C      382.173     162.604       6.740
  O      383.361     162.280       6.731
  N      381.384     161.673       8.994
  C      380.188     161.722       9.556
  N      379.268     162.361       8.765
  O      378.185     161.551      15.372
  O      380.533     161.205      14.402
  H      375.767     161.666       7.675
  H      378.324     160.618      15.632
  H      382.219     163.531       4.941
  H      379.950     161.328      10.537
  H      377.484     163.267       8.250
  H      377.450     160.452       8.542
  H      380.505     164.651       3.800
  H      377.970     160.550      10.918
  H      378.917     164.692       4.498
  H      375.851     162.760      11.078
  H      377.527     163.603      12.867
  H      376.511     162.257      13.304
  P      376.159     158.818      11.683
  C      374.501     158.805      13.684
  O      374.759     158.408      12.348
  O      377.078     159.246      12.924
  O      376.816     157.780      10.842
  H      377.684     158.520      13.154
  H      373.449     158.583      13.914
  H      374.662     159.884      13.803
  H      375.139     158.252      14.376
  H      379.226     165.133      15.790
  H      379.691     163.620      16.530
  H      378.045     163.862      15.997

 3  4  5  6  7  8  9  10  11  12  23  26  30  31 0
 6-311+G(2d,p)
 ****
 33  35  36  37  38 0
 6-311+G(2d,p)
 ****
 1  2  13  14  15  16  17  18  19  20  21  22  24  25 0
 3-21G
 ****
 27  28  29  32  34  39  40  41  42  43  44  45  46  47  48  49 0
 3-21G
 ****


