%nproc=1
%NoSave
%Mem=1900MB
#P OB98/GEN NMR

erre ene a

0 1
  C     -136.529    -495.642    -294.459
  O     -136.616    -494.338    -293.931
  H     -135.876    -495.616    -295.336
  H     -137.515    -495.994    -294.777
  H     -136.104    -496.330    -293.726
  P     -137.551    -494.066    -292.652
  C     -139.794    -493.292    -293.639
  O     -139.050    -494.401    -293.144
  C     -141.298    -493.551    -293.532
  O     -141.679    -494.597    -294.464
  C     -141.757    -493.994    -292.133
  O     -142.921    -493.252    -291.747
  C     -142.133    -495.458    -292.323
  O     -143.072    -495.924    -291.360
  C     -142.623    -495.439    -293.777
  N     -142.692    -496.778    -294.345
  C     -143.729    -497.597    -293.870
  O     -144.519    -497.168    -293.020
  N     -143.811    -498.891    -294.320
  C     -142.908    -499.344    -295.135
  N     -143.038    -500.641    -295.521
  C     -141.780    -498.525    -295.640
  C     -141.745    -497.264    -295.214
  O     -137.380    -492.720    -292.024
  O     -137.234    -495.274    -291.649
  H     -143.319    -496.849    -291.580
  H     -137.483    -495.000    -290.735
  H     -141.059    -498.956    -296.314
  H     -140.955    -496.589    -295.529
  H     -143.615    -494.972    -293.853
  H     -141.225    -496.073    -292.243
  H     -140.987    -493.877    -291.371
  H     -141.832    -492.647    -293.854
  H     -143.811    -501.173    -295.145
  H     -139.508    -493.112    -294.676
  H     -142.377    -501.113    -296.130
  H     -139.546    -492.414    -293.034
  P     -142.653    -491.928    -290.873
  C     -142.816    -492.551    -288.350
  O     -141.973    -492.378    -289.485
  O     -144.123    -491.465    -290.447
  O     -141.926    -490.857    -291.618
  H     -144.365    -490.643    -290.917
  H     -142.225    -492.849    -287.509
  H     -143.545    -493.306    -288.559
  H     -143.311    -491.628    -288.130

 6  7  8  9  10  11  12  13  14  15  16  26  30  31  32  33  35 0
 6-311+G(2d,p)
 ****
 37  38 0
 6-311+G(2d,p)
 ****
 1  2  3  4  5  17  18  19  20  21  22  23  24  25 0
 3-21G
 ****
 27  28  29  34  36  39  40  41  42  43  44  45  46 0
 3-21G
 ****


