%nproc=1
%NoSave
%Mem=1900MB
#P OB98/GEN NMR

erre ene a

0 1
  C     -748.862     470.100     576.500
  O     -748.065     468.989     576.903
  P     -747.287     468.161     575.767
  C     -744.807     468.589     576.415
  O     -745.881     467.667     576.351
  C     -744.218     468.645     577.832
  O     -745.149     469.262     578.753
  C     -743.910     467.277     578.419
  O     -742.661     466.785     577.975
  C     -743.852     467.612     579.916
  O     -742.573     468.197     580.234
  C     -744.963     468.656     580.056
  N     -747.555     466.669     584.012
  C     -746.273     467.089     583.891
  N     -745.651     467.597     582.804
  C     -746.505     467.650     581.759
  C     -747.826     467.256     581.734
  C     -748.360     466.738     582.930
  N     -749.663     466.312     583.034
  N     -748.368     467.443     580.481
  C     -747.395     467.979     579.765
  N     -746.239     468.110     580.496
  O     -746.862     469.302     574.719
  O     -748.116     467.108     575.110
  H     -742.667     468.623     581.113
  H     -746.894     468.946     573.804
  H     -745.679     467.016     584.794
  H     -747.464     468.264     578.729
  H     -744.695     469.455     580.764
  H     -743.964     466.733     580.545
  H     -744.735     466.573     578.245
  H     -743.308     469.248     577.797
  H     -745.142     469.595     576.106
  H     -749.980     465.976     583.935
  H     -750.281     466.382     582.235
  H     -744.032     468.285     575.689
  P     -742.626     465.292     577.404
  C     -742.208     465.672     574.852
  O     -741.653     465.350     576.121
  O     -744.082     465.120     576.763
  O     -742.312     464.240     578.409
  H     -744.358     464.173     576.824
  H     -741.393     465.960     574.182
  H     -742.904     466.514     574.937
  H     -742.725     464.800     574.427
  H     -749.313     470.546     577.361
  H     -749.626     469.766     575.830
  H     -748.245     470.821     576.007

 3  4  5  6  7  8  9  10  11  12  22  25  29  30  31  32 0
 6-311+G(2d,p)
 ****
 33  36  37 0
 6-311+G(2d,p)
 ****
 1  2  13  14  15  16  17  18  19  20  21  23  24  26 0
 3-21G
 ****
 27  28  34  35  38  39  40  41  42  43  44  45  46  47  48 0
 3-21G
 ****


