%nproc=1
%NoSave
%Mem=1900MB
#P OB98/GEN NMR

erre ene a

0 1
  C      -74.945      41.113     -40.664
  O      -74.742      42.490     -40.394
  P      -76.037      43.438     -40.341
  C      -78.081      43.468     -38.738
  O      -77.137      42.681     -39.451
  C      -79.498      42.926     -38.929
  O      -79.860      43.042     -40.334
  C      -79.677      41.453     -38.530
  O      -80.999      41.328     -37.995
  C      -79.556      40.745     -39.868
  O      -80.056      39.419     -39.867
  C      -80.292      41.733     -40.767
  N      -81.426      38.973     -44.917
  C      -81.941      38.971     -43.666
  N      -81.593      39.741     -42.614
  C      -80.610      40.593     -42.955
  C      -79.976      40.698     -44.181
  C      -80.423      39.837     -45.196
  N      -79.890      39.835     -46.470
  N      -78.996      41.667     -44.146
  C      -79.035      42.139     -42.917
  N      -80.008      41.536     -42.168
  O      -76.625      43.325     -41.824
  O      -75.765      44.857     -39.951
  H      -79.910      39.006     -40.740
  H      -76.969      44.186     -42.133
  H      -82.736      38.254     -43.486
  H      -78.379      42.901     -42.519
  H      -81.379      41.678     -40.633
  H      -78.496      40.686     -40.145
  H      -78.954      41.116     -37.781
  H      -80.190      43.559     -38.361
  H      -78.053      44.496     -39.114
  H      -80.137      39.053     -47.057
  H      -79.016      40.329     -46.604
  H      -77.807      43.491     -37.678
  P      -81.335      40.084     -37.039
  C      -80.232      39.178     -34.903
  O      -80.094      40.034     -36.020
  O      -81.002      38.856     -38.011
  O      -82.704      40.062     -36.454
  H      -80.122      38.948     -38.418
  H      -79.287      39.167     -34.353
  H      -80.464      38.161     -35.229
  H      -81.020      39.551     -34.242
  H      -74.002      40.608     -40.669
  H      -75.414      41.002     -41.619
  H      -75.572      40.690     -39.908

 3  4  5  6  7  8  9  10  11  12  22  25  29  30  31  32 0
 6-311+G(2d,p)
 ****
 33  36  37 0
 6-311+G(2d,p)
 ****
 1  2  13  14  15  16  17  18  19  20  21  23  24  26 0
 3-21G
 ****
 27  28  34  35  38  39  40  41  42  43  44  45  46  47  48 0
 3-21G
 ****


