%nproc=1
%NoSave
%Mem=1900MB
#P OB98/GEN NMR

erre ene a

0 1
  C      -14.736      15.600     264.454
  O      -14.288      16.372     263.357
  H      -15.790      15.354     264.303
  H      -14.637      16.170     265.382
  H      -14.162      14.670     264.523
  P      -12.757      16.857     263.403
  C      -13.325      19.386     263.315
  O      -12.774      18.318     264.072
  C      -13.308      20.680     264.128
  O      -14.258      20.609     265.217
  C      -11.957      21.015     264.749
  O      -11.107      21.658     263.815
  C      -12.377      21.934     265.892
  O      -12.619      23.277     265.430
  C      -13.680      21.275     266.370
  N      -14.734      20.309     271.212
  C      -15.133      21.358     270.404
  N      -15.884      22.315     270.993
  N      -14.817      21.460     269.141
  C      -14.037      20.443     268.701
  C      -13.591      19.343     269.399
  C      -13.974      19.226     270.788
  O      -13.709      18.291     271.541
  N      -12.838      18.521     268.601
  C      -12.793      19.142     267.436
  N      -13.495      20.321     267.452
  O      -12.416      17.163     261.867
  O      -11.796      15.888     263.998
  H      -12.780      23.854     266.195
  H      -11.468      16.988     261.712
  H      -15.024      20.277     272.175
  H      -12.277      18.781     266.559
  H      -14.409      22.014     266.719
  H      -11.602      22.002     266.658
  H      -15.867      22.461     271.993
  H      -11.485      20.115     265.160
  H      -16.158      23.097     270.412
  H      -13.636      21.492     263.463
  H      -14.357      19.141     263.050
  H      -12.741      19.517     262.396
  P       -9.569      21.868     264.224
  C       -9.850      24.434     263.903
  O       -9.445      23.375     264.761
  O       -8.813      21.917     262.814
  O       -9.017      20.813     265.122
  H       -7.860      21.769     262.943
  H       -9.708      25.370     264.401
  H      -10.884      24.316     263.654
  H       -9.263      24.413     263.009

 6  7  8  9  10  11  12  13  14  15  26  29  33  34 0
 6-311+G(2d,p)
 ****
 36  38  39  40  41 0
 6-311+G(2d,p)
 ****
 1  2  3  4  5  16  17  18  19  20  21  22  23  24  25 0
 3-21G
 ****
 27  28  30  31  32  35  37  42  43  44  45  46  47 0
 3-21G
 ****
 48  49 0
 3-21G
 ****


