%nproc=1
%NoSave
%Mem=1900MB
#P OB98/GEN NMR

erre ene a

0 1
  C      170.091     576.794     -77.911
  O      169.091     577.583     -77.293
  P      169.494     578.396     -75.973
  C      168.018     577.024     -74.313
  O      169.324     577.396     -74.728
  C      168.102     576.134     -73.074
  O      168.799     574.904     -73.372
  C      168.879     576.767     -71.925
  O      168.087     577.715     -71.219
  C      169.249     575.548     -71.091
  O      168.166     575.172     -70.221
  C      169.473     574.476     -72.179
  N      170.891     574.213     -72.416
  C      171.204     572.942     -72.880
  O      170.355     572.067     -73.073
  N      172.531     572.690     -73.096
  C      173.564     573.547     -72.833
  O      174.743     573.242     -72.991
  C      173.175     574.869     -72.311
  C      171.880     575.132     -72.122
  O      168.293     579.435     -75.785
  O      170.817     579.074     -76.045
  H      168.132     575.846     -69.513
  H      168.641     580.281     -75.425
  H      172.780     571.782     -73.460
  H      173.967     575.570     -72.092
  H      171.571     576.094     -71.724
  H      168.994     573.532     -71.880
  H      170.115     575.730     -70.448
  H      169.801     577.234     -72.300
  H      167.081     575.881     -72.755
  H      167.515     576.482     -75.122
  H      167.444     577.928     -74.095
  P      168.862     578.721     -70.235
  C      167.865     577.681     -68.060
  O      169.009     577.930     -68.856
  O      167.720     579.816     -69.976
  O      170.120     579.260     -70.832
  H      166.830     579.427     -69.985
  H      166.978     577.492     -68.673
  H      167.678     578.537     -67.413
  H      168.054     576.798     -67.436
  H      169.682     576.312     -78.774
  H      170.439     576.054     -77.221
  H      170.908     577.420     -78.205

 3  4  5  6  7  8  9  10  11  12  13  23  28  29  30  31  32 0
 6-311+G(2d,p)
 ****
 33  34 0
 6-311+G(2d,p)
 ****
 1  2  14  15  16  17  18  19  20  21  22  24  25  26 0
 3-21G
 ****
 27  35  36  37  38  39  40  41  42  43  44  45 0
 3-21G
 ****


