%nproc=1
%NoSave
%Mem=1900MB
#P OB98/GEN NMR

erre ene a

0 1
  C      -30.374    -136.854     378.438
  O      -31.296    -137.026     379.510
  P      -30.957    -136.298     380.905
  C      -30.284    -138.039     382.716
  O      -29.859    -137.236     381.618
  C      -31.044    -139.264     382.226
  O      -30.267    -139.959     381.223
  C      -31.339    -140.302     383.300
  O      -32.488    -139.969     384.065
  C      -31.614    -141.532     382.445
  O      -32.949    -141.477     381.910
  C      -30.585    -141.376     381.318
  N      -28.529    -146.060     381.516
  C      -29.807    -145.643     381.330
  N      -30.276    -144.369     381.309
  C      -29.284    -143.493     381.526
  C      -27.949    -143.775     381.768
  C      -27.569    -145.131     381.747
  N      -26.272    -145.551     381.906
  N      -27.230    -142.616     381.960
  C      -28.110    -141.642     381.825
  N      -29.366    -142.125     381.548
  O      -32.280    -136.543     381.772
  O      -30.608    -134.851     380.796
  H      -33.562    -141.671     382.653
  H      -32.345    -135.866     382.468
  H      -30.544    -146.425     381.182
  H      -27.888    -140.587     381.897
  H      -30.983    -141.687     380.346
  H      -31.539    -142.468     383.014
  H      -30.462    -140.481     383.937
  H      -31.974    -138.926     381.752
  H      -30.950    -137.446     383.359
  H      -26.055    -146.522     381.688
  H      -25.534    -144.850     381.871
  H      -29.412    -138.337     383.299
  P      -32.635    -140.676     385.499
  C      -34.472    -142.478     385.929
  O      -33.306    -142.100     385.214
  O      -33.805    -139.836     386.202
  O      -31.374    -140.686     386.310
  H      -33.718    -139.883     387.171
  H      -34.956    -143.294     385.410
  H      -35.175    -141.638     386.012
  H      -34.187    -142.815     386.936
  H      -30.722    -137.389     377.579
  H      -29.415    -137.231     378.728
  H      -30.292    -135.814     378.202

 3  4  5  6  7  8  9  10  11  12  22  25  29  30  31  32 0
 6-311+G(2d,p)
 ****
 33  36  37 0
 6-311+G(2d,p)
 ****
 1  2  13  14  15  16  17  18  19  20  21  23  24  26 0
 3-21G
 ****
 27  28  34  35  38  39  40  41  42  43  44  45  46  47  48 0
 3-21G
 ****


