%nproc=1
%NoSave
%Mem=1900MB
#P OB98/GEN NMR

erre ene a

0 1
  C      865.337     -82.649    -221.508
  O      865.126     -83.932    -220.950
  H      866.192     -82.703    -222.189
  H      865.566     -81.929    -220.721
  H      864.464     -82.322    -222.074
  P      863.827     -84.165    -220.045
  C      865.268     -84.874    -218.026
  O      864.279     -83.977    -218.515
  C      865.564     -84.575    -216.560
  O      866.100     -83.233    -216.432
  C      864.330     -84.605    -215.664
  O      863.915     -85.934    -215.402
  C      864.829     -83.829    -214.458
  O      865.599     -84.670    -213.587
  C      865.733     -82.757    -215.112
  N      865.067     -81.454    -215.193
  C      864.833     -80.802    -213.991
  O      865.171     -81.268    -212.895
  N      864.142     -79.625    -214.069
  C      863.551     -79.123    -215.200
  O      862.742     -78.202    -215.176
  C      863.886     -79.814    -216.449
  C      864.599     -80.940    -216.394
  O      863.059     -85.418    -220.327
  O      862.933     -82.859    -220.318
  H      862.214     -83.090    -220.938
  H      865.908     -84.088    -212.860
  H      863.938     -79.167    -213.190
  H      863.500     -79.405    -217.374
  H      864.830     -81.493    -217.303
  H      866.663     -82.637    -214.549
  H      864.006     -83.412    -213.881
  H      863.510     -84.042    -216.139
  H      866.330     -85.280    -216.206
  H      866.186     -84.745    -218.612
  H      864.914     -85.903    -218.145
  P      862.551     -86.214    -214.608
  C      863.746     -87.506    -212.733
  O      862.902     -86.406    -213.054
  O      861.686     -87.282    -215.195
  O      861.796     -84.792    -214.630
  H      860.881     -84.931    -214.936
  H      863.910     -87.533    -211.676
  H      864.684     -87.395    -213.236
  H      863.279     -88.417    -213.045

 6  7  8  9  10  11  12  13  14  15  16  27  31  32  33  34  35 0
 6-311+G(2d,p)
 ****
 36  37 0
 6-311+G(2d,p)
 ****
 1  2  3  4  5  17  18  19  20  21  22  23  24  25 0
 3-21G
 ****
 26  28  29  30  38  39  40  41  42  43  44  45 0
 3-21G
 ****


