%nproc=1
%NoSave
%Mem=1900MB
#P OB98/GEN NMR

erre ene a

0 1
  C       64.914    -481.234    -191.743
  O       64.753    -481.963    -190.542
  H       64.089    -481.442    -192.428
  H       64.915    -480.165    -191.509
  H       65.866    -481.495    -192.219
  P       64.735    -483.565    -190.664
  C       63.245    -485.262    -191.957
  O       63.406    -483.926    -191.489
  C       61.792    -485.688    -191.790
  O       61.398    -485.608    -190.398
  C       60.792    -484.823    -192.551
  O       60.702    -485.183    -193.919
  C       59.509    -485.166    -191.807
  O       59.026    -486.454    -192.229
  C       60.000    -485.227    -190.356
  N       56.801    -482.211    -187.727
  C       56.620    -483.404    -188.337
  N       57.522    -484.141    -189.020
  C       58.719    -483.526    -189.044
  C       59.050    -482.308    -188.481
  C       58.025    -481.633    -187.788
  N       58.199    -480.410    -187.181
  N       60.367    -481.982    -188.746
  C       60.829    -483.013    -189.427
  N       59.870    -483.967    -189.645
  O       64.385    -484.049    -189.176
  O       65.986    -484.190    -191.188
  H       59.809    -487.029    -192.321
  H       64.662    -484.978    -189.053
  H       55.624    -483.820    -188.266
  H       61.846    -483.113    -189.785
  H       59.471    -485.991    -189.764
  H       58.708    -484.445    -191.990
  H       61.002    -483.755    -192.429
  H       61.709    -486.744    -192.097
  H       63.892    -485.923    -191.369
  H       57.362    -479.930    -186.876
  H       59.060    -479.908    -187.349
  H       63.540    -485.309    -193.010
  P       60.587    -483.985    -194.988
  C       58.583    -482.574    -195.859
  O       59.017    -483.787    -195.251
  O       61.110    -484.664    -196.333
  O       61.350    -482.758    -194.632
  H       61.485    -483.990    -196.947
  H       57.519    -482.590    -195.968
  H       59.038    -482.475    -196.822
  H       58.866    -481.746    -195.244

 6  7  8  9  10  11  12  13  14  15  25  28  32  33  34  35 0
 6-311+G(2d,p)
 ****
 36  39  40 0
 6-311+G(2d,p)
 ****
 1  2  3  4  5  16  17  18  19  20  21  22  23  24 0
 3-21G
 ****
 26  27  29  30  31  37  38  41  42  43  44  45  46  47 0
 3-21G
 ****
 48 0
 3-21G
 ****


