%nproc=1
%NoSave
%Mem=1900MB
#P OB98/GEN NMR

erre ene a

0 1
  C     -505.504     115.939    -194.767
  O     -504.694     116.569    -193.801
  H     -505.898     115.008    -194.346
  H     -504.912     115.693    -195.653
  H     -506.345     116.580    -195.049
  P     -504.135     118.034    -194.146
  C     -505.038     118.972    -191.897
  O     -503.909     118.784    -192.743
  C     -504.590     119.399    -190.497
  O     -504.043     118.240    -189.807
  C     -503.520     120.495    -190.506
  O     -503.776     121.391    -189.418
  C     -502.229     119.739    -190.240
  O     -501.219     120.560    -189.649
  C     -502.723     118.592    -189.344
  N     -501.813     117.446    -189.391
  C     -501.667     116.705    -188.221
  O     -502.294     117.032    -187.201
  N     -500.797     115.652    -188.196
  C     -500.051     115.410    -189.235
  N     -499.180     114.374    -189.146
  C     -500.118     116.208    -190.477
  C     -501.018     117.200    -190.488
  O     -505.412     118.783    -194.760
  O     -502.962     118.070    -195.064
  H     -500.442     119.998    -189.452
  H     -505.147     119.440    -195.431
  H     -499.464     115.991    -191.306
  H     -501.130     117.844    -191.350
  H     -502.813     118.921    -188.300
  H     -501.834     119.343    -191.179
  H     -503.480     121.055    -191.441
  H     -505.473     119.718    -189.931
  H     -499.153     113.860    -188.271
  H     -505.588     118.024    -191.820
  H     -498.523     114.124    -189.868
  H     -505.699     119.725    -192.335
  P     -504.241     122.879    -189.809
  C     -506.055     122.790    -187.953
  O     -504.988     123.519    -188.549
  O     -505.416     122.633    -190.870
  O     -503.141     123.712    -190.384
  H     -505.116     122.876    -191.768
  H     -506.450     123.346    -187.128
  H     -505.691     121.846    -187.606
  H     -506.826     122.631    -188.677

 6  7  8  9  10  11  12  13  14  15  16  26  30  31  32  33  35 0
 6-311+G(2d,p)
 ****
 37  38 0
 6-311+G(2d,p)
 ****
 1  2  3  4  5  17  18  19  20  21  22  23  24  25 0
 3-21G
 ****
 27  28  29  34  36  39  40  41  42  43  44  45  46 0
 3-21G
 ****


