%nproc=1
%NoSave
%Mem=1900MB
#P OB98/GEN NMR

erre ene a

0 1
  C     -210.870     341.849     110.970
  O     -211.225     340.929     109.938
  P     -212.373     339.861     110.261
  C     -210.904     337.748     110.770
  O     -211.760     338.762     111.261
  C     -211.224     336.389     111.425
  O     -211.154     336.549     112.866
  C     -212.622     335.840     111.142
  O     -212.635     334.442     111.431
  C     -213.456     336.577     112.171
  O     -214.713     335.942     112.380
  C     -212.510     336.620     113.394
  N     -212.665     337.836     114.222
  C     -213.399     337.747     115.406
  O     -213.926     336.706     115.804
  N     -213.547     338.907     116.113
  C     -213.015     340.116     115.788
  O     -213.253     341.146     116.413
  C     -212.140     340.130     114.609
  C     -212.018     339.014     113.884
  O     -212.558     339.076     108.877
  O     -213.652     340.474     110.732
  H     -215.099     335.795     111.487
  H     -213.381     339.362     108.436
  H     -214.126     338.865     116.937
  H     -211.642     341.062     114.352
  H     -211.388     339.010     112.995
  H     -212.678     335.754     114.047
  H     -213.661     337.596     111.816
  H     -212.980     336.016     110.122
  H     -210.457     335.661     111.135
  H     -209.858     338.019     110.955
  H     -211.017     337.661     109.681
  P     -212.783     333.421     110.200
  C     -215.162     333.848     109.317
  O     -213.781     334.116     109.152
  O     -213.102     332.004     110.551
  O     -211.364     333.543     109.468
  H     -211.216     332.762     108.891
  H     -215.730     334.704     108.947
  H     -215.411     333.672     110.367
  H     -215.423     332.962     108.724
  H     -210.096     342.499     110.618
  H     -210.520     341.309     111.825
  H     -211.727     342.429     111.241

 3  4  5  6  7  8  9  10  11  12  13  23  28  29  30  31  32 0
 6-311+G(2d,p)
 ****
 33  34 0
 6-311+G(2d,p)
 ****
 1  2  14  15  16  17  18  19  20  21  22  24  25  26  27 0
 3-21G
 ****
 35  36  37  38  39  40  41  42  43  44  45 0
 3-21G
 ****


