%nproc=1
%NoSave
%Mem=1900MB
#P OB98/GEN NMR

erre ene a

0 1
  C      219.809      71.990    -180.145
  O      218.540      71.720    -179.584
  H      220.333      71.056    -180.363
  H      219.671      72.540    -181.080
  H      220.404      72.601    -179.461
  P      218.519      70.922    -178.192
  C      218.010      72.941    -176.638
  O      217.528      71.744    -177.234
  C      216.905      73.991    -176.635
  O      216.632      74.431    -177.985
  C      215.572      73.500    -176.083
  O      215.540      73.516    -174.667
  C      214.630      74.538    -176.667
  O      214.725      75.760    -175.913
  C      215.212      74.733    -178.073
  N      213.502      74.482    -182.888
  C      214.032      75.495    -182.171
  N      214.458      75.481    -180.893
  C      214.295      74.265    -180.349
  C      213.761      73.140    -180.953
  C      213.357      73.276    -182.292
  N      212.802      72.249    -183.023
  N      213.720      72.083    -180.065
  C      214.251      72.556    -178.957
  N      214.605      73.873    -179.074
  O      219.962      71.221    -177.565
  O      218.228      69.462    -178.287
  H      215.655      76.051    -175.969
  H      220.182      70.546    -176.896
  H      214.124      76.443    -182.695
  H      214.401      71.988    -178.048
  H      215.117      75.765    -178.428
  H      213.584      74.227    -176.644
  H      215.310      72.512    -176.481
  H      217.265      74.861    -176.069
  H      218.862      73.312    -177.215
  H      212.379      72.499    -183.903
  H      212.554      71.397    -182.540
  H      218.336      72.727    -175.616
  P      214.945      72.221    -173.929
  C      217.274      71.090    -173.679
  O      216.137      71.646    -173.025
  O      214.822      71.153    -175.111
  O      213.646      72.445    -173.226
  H      214.125      70.499    -174.916
  H      217.977      70.752    -172.947
  H      217.732      71.836    -174.295
  H      216.968      70.265    -174.287

 6  7  8  9  10  11  12  13  14  15  25  28  32  33  34  35 0
 6-311+G(2d,p)
 ****
 36  39  40 0
 6-311+G(2d,p)
 ****
 1  2  3  4  5  16  17  18  19  20  21  22  23  24 0
 3-21G
 ****
 26  27  29  30  31  37  38  41  42  43  44  45  46  47 0
 3-21G
 ****
 48 0
 3-21G
 ****


