%nproc=1
%NoSave
%Mem=1900MB
#P OB98/GEN NMR

erre ene a

0 1
  C      306.420     993.548     390.470
  O      305.714     994.594     389.827
  H      307.456     993.855     390.603
  H      306.393     992.649     389.850
  H      305.982     993.340     391.451
  P      304.121     994.421     389.704
  C      304.282     994.426     387.083
  O      303.742     995.003     388.258
  C      304.168     995.403     385.908
  O      302.779     995.775     385.742
  C      304.968     996.693     386.096
  O      305.509     997.081     384.829
  C      303.931     997.706     386.547
  O      304.326     999.040     386.268
  C      302.676     997.211     385.807
  N      301.436     997.637     386.453
  C      301.215     999.014     386.533
  O      302.051     999.806     386.093
  N      300.075     999.469     387.155
  C      299.267     998.613     387.704
  N      298.161     999.128     388.318
  C      299.492     997.152     387.686
  C      300.575     996.739     387.038
  O      303.596     995.539     390.719
  O      303.635     993.039     389.989
  H      303.599     999.642     386.573
  H      304.088     996.372     390.678
  H      298.791     996.484     388.169
  H      300.818     995.685     386.972
  H      302.680     997.592     384.768
  H      303.777     997.618     387.634
  H      305.779     996.599     386.818
  H      304.465     994.885     384.985
  H      298.056    1000.129     388.330
  H      303.758     993.505     386.835
  H      297.491     998.562     388.826
  H      305.332     994.185     387.279
  P      307.076     996.911     384.550
  C      308.161     999.197     384.051
  O      307.552     998.040     383.512
  O      307.529     995.527     384.245
  O      307.737     997.434     385.925
  H      308.501     996.861     386.123
  H      308.428     999.863     383.257
  H      309.040     998.918     384.593
  H      307.476     999.686     384.711

 6  7  8  9  10  11  12  13  14  15  16  26  30  31  32  33  35 0
 6-311+G(2d,p)
 ****
 37  38 0
 6-311+G(2d,p)
 ****
 1  2  3  4  5  17  18  19  20  21  22  23  24  25 0
 3-21G
 ****
 27  28  29  34  36  39  40  41  42  43  44  45  46 0
 3-21G
 ****


