%nproc=1
%NoSave
%Mem=1900MB
#P OB98/GEN NMR

erre ene a

0 1
  C     1281.016    2248.764       6.590
  O     1281.245    2248.474       7.996
  P     1282.371    2249.163       8.894
  C     1280.684    2250.811      10.069
  O     1281.857    2250.630       9.262
  C     1280.091    2252.219       9.969
  O     1279.513    2252.449       8.678
  C     1278.951    2252.378      11.009
  O     1279.271    2252.734      12.345
  C     1277.939    2253.354      10.336
  O     1278.185    2254.717      10.706
  C     1278.264    2253.162       8.833
  N     1274.862    2253.111       5.006
  C     1275.732    2254.125       5.385
  N     1275.659    2255.295       4.703
  N     1276.566    2253.984       6.351
  C     1276.473    2252.842       7.067
  C     1275.639    2251.776       6.772
  C     1274.743    2251.872       5.645
  O     1273.983    2251.024       5.244
  N     1275.831    2250.741       7.664
  C     1276.733    2251.181       8.519
  N     1277.161    2252.469       8.180
  O     1283.741    2249.031       8.372
  O     1282.268    2248.355      10.285
  H     1278.246    2254.792      11.690
  H     1283.160    2248.331      10.633
  H     1274.229    2253.273       4.231
  H     1277.119    2250.641       9.363
  H     1278.406    2254.138       8.311
  H     1276.945    2253.103      10.638
  H     1274.965    2255.485       4.021
  H     1278.423    2251.433      11.046
  H     1276.146    2256.113       5.116
  H     1280.878    2252.972      10.094
  H     1280.975    2250.573      11.091
  H     1279.919    2250.047       9.762
  P     1279.704    2251.693      13.515
  C     1282.126    2252.569      13.533
  O     1281.267    2251.463      13.359
  O     1279.052    2250.277      13.053
  O     1279.286    2252.052      14.903
  H     1279.073    2249.676      13.789
  H     1283.147    2252.330      13.102
  H     1282.236    2252.716      14.628
  H     1281.714    2253.482      13.052
  H     1280.205    2248.166       6.230
  H     1281.900    2248.539       6.031
  H     1280.775    2249.800       6.474

 3  4  5  6  7  8  9  10  11  12  23  26  30  31 0
 6-311+G(2d,p)
 ****
 33  35  36  37  38 0
 6-311+G(2d,p)
 ****
 1  2  13  14  15  16  17  18  19  20  21  22  24  25 0
 3-21G
 ****
 27  28  29  32  34  39  40  41  42  43  44  45  46  47  48  49 0
 3-21G
 ****


