%nproc=1
%NoSave
%Mem=1900MB
#P OB98/GEN NMR

erre ene a

0 1
  C     -356.618     -69.948     -42.822
  O     -355.304     -69.382     -42.828
  P     -354.284     -69.695     -44.034
  C     -352.141     -70.435     -42.864
  O     -352.785     -69.370     -43.549
  C     -350.836     -70.008     -42.170
  O     -349.757     -69.888     -43.131
  C     -350.908     -68.685     -41.406
  O     -350.036     -68.821     -40.281
  C     -350.344     -67.701     -42.421
  O     -349.919     -66.480     -41.810
  C     -349.240     -68.541     -43.062
  N     -348.850     -68.036     -44.372
  C     -347.971     -66.952     -44.409
  O     -347.601     -66.421     -43.362
  N     -347.582     -66.466     -45.629
  C     -348.084     -66.944     -46.714
  N     -347.669     -66.405     -47.895
  C     -349.089     -68.043     -46.725
  C     -349.409     -68.541     -45.533
  O     -354.660     -69.076     -45.344
  O     -354.304     -71.297     -44.138
  H     -350.713     -65.998     -41.510
  H     -354.132     -71.555     -45.065
  H     -349.498     -68.402     -47.662
  H     -350.120     -69.345     -45.433
  H     -348.348     -68.561     -42.425
  H     -351.117     -67.455     -43.161
  H     -351.922     -68.429     -41.083
  H     -350.547     -70.820     -41.479
  H     -347.008     -65.636     -47.844
  H     -351.919     -71.233     -43.583
  H     -348.081     -66.629     -48.791
  H     -352.822     -70.863     -42.122
  P     -350.580     -69.016     -38.791
  C     -348.831     -67.427     -37.805
  O     -349.352     -68.740     -37.809
  O     -351.306     -70.299     -38.545
  O     -351.541     -67.750     -38.543
  H     -352.123     -67.928     -37.786
  H     -348.149     -67.309     -36.955
  H     -349.632     -66.691     -37.718
  H     -348.273     -67.249     -38.736
  H     -357.141     -69.626     -41.946
  H     -356.546     -71.016     -42.823
  H     -357.149     -69.626     -43.693

 3  4  5  6  7  8  9  10  11  12  13  23  27  28  29  30  32 0
 6-311+G(2d,p)
 ****
 34  35 0
 6-311+G(2d,p)
 ****
 1  2  14  15  16  17  18  19  20  21  22  24  25  26 0
 3-21G
 ****
 31  33  36  37  38  39  40  41  42  43  44  45  46 0
 3-21G
 ****


