%nproc=1
%NoSave
%Mem=1900MB
#P OB98/GEN NMR

erre ene a

0 1
  C     -349.866     276.455    -185.555
  O     -350.214     277.584    -184.779
  H     -349.025     275.945    -185.077
  H     -349.564     276.754    -186.561
  H     -350.709     275.759    -185.611
  P     -351.373     278.550    -185.311
  C     -349.741     280.502    -184.836
  O     -351.066     280.001    -184.697
  C     -349.755     282.023    -184.998
  O     -350.498     282.388    -186.180
  C     -350.420     282.765    -183.844
  O     -349.569     282.796    -182.717
  C     -350.690     284.108    -184.496
  O     -349.495     284.907    -184.546
  C     -351.114     283.673    -185.921
  N     -352.561     283.600    -186.103
  C     -353.269     284.795    -185.941
  O     -352.672     285.834    -185.651
  N     -354.633     284.778    -186.095
  C     -355.239     283.674    -186.426
  N     -356.588     283.726    -186.571
  C     -354.525     282.402    -186.642
  C     -353.208     282.430    -186.450
  O     -352.779     278.074    -185.103
  O     -351.037     278.734    -186.866
  H     -349.391     285.288    -183.652
  H     -351.533     278.088    -187.401
  H     -355.065     281.510    -186.923
  H     -352.607     281.533    -186.588
  H     -350.717     284.373    -186.669
  H     -351.440     284.690    -183.958
  H     -351.381     282.300    -183.596
  H     -348.720     282.357    -185.138
  H     -357.028     284.627    -186.431
  H     -349.308     280.034    -185.724
  H     -357.134     282.981    -186.978
  H     -349.131     280.224    -183.970
  P     -349.791     281.816    -181.465
  C     -350.019     283.732    -179.766
  O     -349.245     282.615    -180.186
  O     -349.238     280.443    -181.634
  O     -351.374     281.839    -181.243
  H     -351.824     281.274    -181.920
  H     -349.560     284.182    -178.911
  H     -351.006     283.407    -179.511
  H     -350.073     284.447    -180.560

 6  7  8  9  10  11  12  13  14  15  16  26  30  31  32  33  35 0
 6-311+G(2d,p)
 ****
 37  38 0
 6-311+G(2d,p)
 ****
 1  2  3  4  5  17  18  19  20  21  22  23  24  25 0
 3-21G
 ****
 27  28  29  34  36  39  40  41  42  43  44  45  46 0
 3-21G
 ****


