%nproc=1
%NoSave
%Mem=1900MB
#P OB98/GEN NMR

erre ene a

0 1
  C       16.905     -79.735      23.722
  O       16.384     -79.143      22.548
  H       16.201     -80.495      24.074
  H       17.030     -78.981      24.504
  H       17.865     -80.212      23.510
  P       17.230     -77.923      21.932
  C       15.580     -76.052      22.700
  O       16.840     -76.683      22.877
  C       15.330     -75.072      23.842
  O       15.385     -75.750      25.116
  C       16.358     -73.948      23.934
  O       16.134     -72.915      22.989
  C       16.117     -73.477      25.357
  O       14.911     -72.691      25.407
  C       15.934     -74.824      26.092
  N       17.182     -75.347      26.652
  C       17.165     -75.690      28.010
  O       16.145     -75.540      28.681
  N       18.320     -76.164      28.587
  C       19.393     -76.296      27.871
  N       20.510     -76.757      28.497
  C       19.450     -75.964      26.436
  C       18.324     -75.500      25.898
  O       16.458     -77.579      20.572
  O       18.694     -78.156      21.768
  H       15.124     -71.822      25.018
  H       16.830     -76.754      20.176
  H       20.372     -76.080      25.883
  H       18.292     -75.231      24.848
  H       15.199     -74.731      26.901
  H       16.925     -72.851      25.743
  H       17.382     -74.331      23.860
  H       14.312     -74.673      23.729
  H       20.458     -76.918      29.493
  H       14.805     -76.824      22.687
  H       21.429     -76.721      28.070
  H       15.562     -75.512      21.748
  P       17.416     -72.134      22.422
  C       16.822     -69.796      23.383
  O       17.701     -70.910      23.421
  O       16.850     -71.413      21.112
  O       18.600     -73.000      22.119
  H       17.507     -71.424      20.390
  H       17.138     -69.067      24.100
  H       15.828     -70.118      23.616
  H       16.837     -69.363      22.404

 6  7  8  9  10  11  12  13  14  15  16  26  30  31  32  33  35 0
 6-311+G(2d,p)
 ****
 37  38 0
 6-311+G(2d,p)
 ****
 1  2  3  4  5  17  18  19  20  21  22  23  24  25 0
 3-21G
 ****
 27  28  29  34  36  39  40  41  42  43  44  45  46 0
 3-21G
 ****


