%nproc=1
%NoSave
%Mem=1900MB
#P OB98/GEN NMR

erre ene a

0 1
  C       40.492     -60.526     209.828
  O       41.353     -61.495     210.390
  P       42.237     -62.453     209.464
  C       41.642     -64.479     210.915
  O       42.692     -63.713     210.343
  C       42.094     -65.179     212.195
  O       43.095     -66.179     211.869
  C       42.697     -64.236     213.245
  O       42.269     -64.703     214.529
  C       44.189     -64.442     213.074
  O       44.924     -64.073     214.233
  C       44.233     -65.932     212.718
  N       45.476     -66.311     212.064
  C       46.317     -67.180     212.762
  O       46.061     -67.487     213.927
  N       47.432     -67.664     212.124
  C       47.772     -67.175     210.973
  N       48.844     -67.731     210.346
  C       47.039     -66.071     210.321
  C       45.889     -65.722     210.892
  O       43.347     -61.777     208.730
  O       41.183     -63.092     208.439
  H       41.498     -62.948     207.526
  H       44.656     -64.655     214.975
  H       47.430     -65.611     209.427
  H       45.264     -64.942     210.475
  H       44.105     -66.547     213.617
  H       44.551     -63.836     212.235
  H       42.381     -63.197     213.114
  H       41.232     -65.709     212.617
  H       49.298     -68.511     210.803
  H       41.336     -65.233     210.187
  H       48.988     -67.643     209.341
  H       40.777     -63.836     211.112
  P       40.829     -64.239     215.068
  C       42.026     -62.515     216.592
  O       41.041     -63.521     216.484
  O       40.179     -65.644     215.500
  O       39.939     -63.551     214.085
  H       39.207     -65.567     215.466
  H       42.077     -62.189     217.634
  H       41.761     -61.656     215.971
  H       43.005     -62.900     216.297
  H       39.995     -59.993     210.612
  H       39.766     -61.010     209.209
  H       41.063     -59.840     209.238

 3  4  5  6  7  8  9  10  11  12  13  24  27  28  29  30  32 0
 6-311+G(2d,p)
 ****
 34  35 0
 6-311+G(2d,p)
 ****
 1  2  14  15  16  17  18  19  20  21  22  23  25  26 0
 3-21G
 ****
 31  33  36  37  38  39  40  41  42  43  44  45  46 0
 3-21G
 ****


