%nproc=1
%NoSave
%Mem=1900MB
#P OB98/GEN NMR

erre ene a

0 1
  C     -153.977    -237.467    -111.596
  O     -155.390    -237.252    -111.562
  P     -156.229    -237.947    -110.380
  C     -157.337    -240.266    -109.945
  O     -156.464    -239.492    -110.755
  C     -157.535    -241.664    -110.545
  O     -158.538    -241.661    -111.584
  C     -156.281    -242.234    -111.194
  O     -155.412    -242.814    -110.228
  C     -156.877    -243.315    -112.086
  O     -157.176    -244.488    -111.303
  C     -158.175    -242.653    -112.572
  N     -160.693    -240.240    -116.337
  C     -161.115    -240.798    -115.179
  N     -160.389    -241.438    -114.235
  C     -159.091    -241.463    -114.573
  C     -158.506    -240.935    -115.721
  C     -159.365    -240.303    -116.633
  N     -158.926    -239.731    -117.806
  N     -157.144    -241.164    -115.725
  C     -156.905    -241.801    -114.596
  N     -158.051    -242.010    -113.872
  O     -157.686    -237.306    -110.550
  O     -155.672    -237.697    -109.013
  H     -157.349    -245.212    -111.933
  H     -158.105    -237.199    -109.673
  H     -162.184    -240.720    -114.980
  H     -155.929    -242.121    -114.261
  H     -159.008    -243.375    -112.641
  H     -156.189    -243.628    -112.881
  H     -155.775    -241.470    -111.806
  H     -157.872    -242.334    -109.744
  H     -158.302    -239.760    -109.847
  H     -159.605    -239.268    -118.394
  H     -157.942    -239.754    -118.020
  H     -156.920    -240.331    -108.931
  P     -153.860    -242.397    -110.296
  C     -151.816    -243.281    -111.638
  O     -153.163    -243.474    -111.259
  O     -153.329    -242.772    -108.833
  O     -153.616    -240.961    -110.637
  H     -152.594    -242.178    -108.580
  H     -151.416    -244.228    -112.019
  H     -151.205    -242.960    -110.791
  H     -151.762    -242.531    -112.434
  H     -153.557    -236.947    -112.431
  H     -153.778    -238.514    -111.691
  H     -153.539    -237.101    -110.691

 3  4  5  6  7  8  9  10  11  12  22  25  29  30  31  32 0
 6-311+G(2d,p)
 ****
 33  36  37 0
 6-311+G(2d,p)
 ****
 1  2  13  14  15  16  17  18  19  20  21  23  24  26 0
 3-21G
 ****
 27  28  34  35  38  39  40  41  42  43  44  45  46  47  48 0
 3-21G
 ****


