%nproc=1
%NoSave
%Mem=1900MB
#P OB98/GEN NMR

erre ene a

0 1
  C      488.204     358.816     211.031
  O      487.662     360.118     210.921
  H      487.902     358.392     211.991
  H      489.296     358.864     210.994
  H      487.828     358.176     210.227
  P      487.833     360.850     209.500
  C      490.093     362.050     210.083
  O      488.709     362.158     209.801
  C      490.721     363.437     210.224
  O      490.540     364.160     208.983
  C      490.115     364.280     211.347
  O      491.154     365.045     211.957
  C      489.151     365.202     210.620
  O      488.887     366.392     211.362
  C      489.869     365.403     209.279
  N      488.950     365.780     208.208
  C      488.254     366.986     208.371
  O      488.418     367.657     209.389
  N      487.365     367.376     207.402
  C      487.134     366.597     206.391
  N      486.227     367.032     205.475
  C      487.805     365.294     206.204
  C      488.696     364.958     207.133
  O      486.360     361.425     209.254
  O      488.345     359.967     208.414
  H      488.182     366.892     210.896
  H      485.947     361.798     210.050
  H      487.567     364.673     205.351
  H      489.242     364.023     207.071
  H      490.636     366.183     209.368
  H      488.193     364.688     210.461
  H      489.604     363.686     212.108
  H      491.802     363.317     210.362
  H      485.773     367.920     205.650
  H      490.603     361.500     209.286
  H      485.932     366.483     204.678
  H      490.204     361.485     211.013
  P      492.136     364.339     213.004
  C      490.664     364.804     215.067
  O      491.927     365.002     214.451
  O      493.560     364.206     212.574
  O      491.470     362.887     213.199
  H      492.192     362.233     213.269
  H      490.651     365.291     216.019
  H      490.493     363.756     215.200
  H      489.896     365.215     214.446

 6  7  8  9  10  11  12  13  14  15  16  26  30  31  32  33  35 0
 6-311+G(2d,p)
 ****
 37  38 0
 6-311+G(2d,p)
 ****
 1  2  3  4  5  17  18  19  20  21  22  23  24  25 0
 3-21G
 ****
 27  28  29  34  36  39  40  41  42  43  44  45  46 0
 3-21G
 ****


