%nproc=1
%NoSave
%Mem=1900MB
#P OB98/GEN NMR

erre ene a

0 1
  C     -330.565    -126.615     127.435
  O     -329.433    -126.876     128.238
  H     -330.504    -125.588     127.067
  H     -331.478    -126.720     128.028
  H     -330.599    -127.292     126.577
  P     -329.181    -128.371     128.758
  C     -330.639    -128.382     130.890
  O     -330.504    -128.817     129.543
  C     -331.949    -128.896     131.498
  O     -331.935    -130.356     131.465
  C     -332.169    -128.479     132.967
  O     -333.587    -128.381     133.166
  C     -331.589    -129.679     133.694
  O     -331.903    -129.686     135.064
  C     -332.162    -130.801     132.820
  N     -331.577    -132.121     133.033
  C     -332.228    -132.982     133.909
  O     -333.265    -132.715     134.517
  N     -331.638    -134.208     134.085
  C     -330.499    -134.646     133.474
  O     -330.035    -135.768     133.647
  C     -329.854    -133.689     132.565
  C     -330.415    -132.491     132.384
  O     -327.902    -128.596     129.491
  O     -329.253    -129.250     127.419
  H     -328.350    -129.477     127.128
  H     -332.878    -129.743     135.168
  H     -332.097    -134.848     134.716
  H     -328.943    -134.001     132.074
  H     -329.967    -131.767     131.711
  H     -333.247    -130.866     132.959
  H     -330.497    -129.657     133.638
  H     -331.699    -127.525     133.217
  H     -332.784    -128.572     130.865
  H     -330.634    -127.286     130.896
  H     -329.785    -128.747     131.472
  P     -334.380    -126.986     133.211
  C     -334.830    -126.798     135.754
  O     -334.103    -126.301     134.638
  O     -335.832    -127.102     132.873
  O     -333.620    -126.033     132.171
  H     -334.238    -125.360     131.832
  H     -334.549    -126.256     136.633
  H     -334.609    -127.836     135.890
  H     -335.879    -126.676     135.579

 6  7  8  9  10  11  12  13  14  15  16  27  31  32  33  34  35 0
 6-311+G(2d,p)
 ****
 36  37 0
 6-311+G(2d,p)
 ****
 1  2  3  4  5  17  18  19  20  21  22  23  24  25 0
 3-21G
 ****
 26  28  29  30  38  39  40  41  42  43  44  45 0
 3-21G
 ****


