%nproc=1
%NoSave
%Mem=1900MB
#P OB98/GEN NMR

erre ene a

0 1
  C       17.922     131.487     198.656
  O       16.714     131.594     199.421
  P       16.103     130.372     200.260
  C       15.283     132.287     201.781
  O       15.085     130.940     201.358
  C       14.680     132.537     203.168
  O       13.245     132.413     203.127
  C       15.140     131.569     204.249
  O       16.453     131.874     204.684
  C       14.054     131.768     205.302
  O       14.323     132.926     206.110
  C       12.802     131.987     204.430
  N       11.963     130.798     204.348
  C       10.786     130.811     205.102
  O       10.526     131.765     205.838
  N        9.945     129.727     205.025
  C       10.286     128.696     204.318
  N        9.410     127.655     204.272
  C       11.559     128.605     203.580
  C       12.339     129.683     203.637
  O       17.133     129.438     200.810
  O       15.147     129.599     199.232
  H       13.660     132.922     206.827
  H       15.134     128.652     199.459
  H       11.818     127.717     203.026
  H       13.289     129.705     203.117
  H       12.199     132.813     204.828
  H       13.967     130.915     205.981
  H       15.094     130.541     203.870
  H       14.919     133.571     203.454
  H        8.542     127.751     204.784
  H       14.800     132.948     201.053
  H        9.577     126.808     203.752
  H       16.356     132.499     201.791
  P       17.675     130.942     204.239
  C       19.208     132.683     205.340
  O       18.926     131.306     205.171
  O       17.962     130.908     202.774
  O       17.256     129.488     204.771
  H       17.622     128.813     204.170
  H       19.777     132.814     206.264
  H       18.284     133.268     205.404
  H       19.806     133.038     204.498
  H       18.130     132.425     198.185
  H       17.805     130.731     197.908
  H       18.732     131.225     199.304

 3  4  5  6  7  8  9  10  11  12  13  23  27  28  29  30  32 0
 6-311+G(2d,p)
 ****
 34  35 0
 6-311+G(2d,p)
 ****
 1  2  14  15  16  17  18  19  20  21  22  24  25  26 0
 3-21G
 ****
 31  33  36  37  38  39  40  41  42  43  44  45  46 0
 3-21G
 ****


