%nproc=1
%NoSave
%Mem=1900MB
#P OB98/GEN NMR

erre ene a

0 1
  C        2.460     128.151     -37.601
  O        2.564     128.914     -36.392
  P        2.782     128.071     -35.038
  C        0.348     127.882     -34.150
  O        1.447     127.219     -34.763
  C       -0.919     127.023     -34.171
  O       -2.001     127.753     -33.541
  C       -1.402     126.622     -35.569
  O       -1.932     125.289     -35.507
  C       -2.567     127.561     -35.821
  O       -3.472     127.050     -36.795
  C       -3.141     127.672     -34.410
  N       -7.458     129.909     -35.803
  C       -6.976     128.654     -36.112
  N       -7.744     127.896     -36.926
  N       -5.843     128.180     -35.662
  C       -5.196     129.034     -34.834
  C       -5.576     130.300     -34.443
  C       -6.811     130.824     -34.982
  O       -7.267     131.950     -34.788
  N       -4.655     130.860     -33.592
  C       -3.718     129.940     -33.474
  N       -3.998     128.817     -34.214
  O        2.766     129.199     -33.902
  O        4.054     127.292     -35.014
  H       -4.117     127.757     -36.985
  H        3.591     129.158     -33.381
  H       -8.327     130.231     -36.192
  H       -2.813     130.039     -32.892
  H       -3.709     126.773     -34.141
  H       -2.186     128.525     -36.180
  H       -8.655     128.173     -37.255
  H       -0.634     126.683     -36.348
  H       -7.429     126.955     -37.126
  H       -0.735     126.130     -33.562
  H        0.153     128.820     -34.677
  H        0.620     128.130     -33.119
  P       -0.942     124.106     -35.952
  C       -1.926     123.874     -38.349
  O       -0.815     124.219     -37.545
  O       -1.822     122.787     -35.734
  O        0.343     124.066     -35.194
  H       -1.244     122.022     -35.558
  H       -2.840     123.746     -37.759
  H       -1.710     122.938     -38.871
  H       -2.090     124.663     -39.085
  H        2.318     128.813     -38.429
  H        1.627     127.483     -37.531
  H        3.358     127.587     -37.745

 3  4  5  6  7  8  9  10  11  12  23  26  30  31  33  0
 6-311+G(2d,p)
 ****
 35  36  37  38 0
 6-311+G(2d,p)
 ****
 1  2  13  14  15  16  17  18  19  20  21  22  24  25  27  28  29 0
 3-21G
 ****
 32  34  39  40  41  42  43  44  45  46  47  48  49 0
 3-21G
 ****


