%nproc=1
%NoSave
%Mem=1900MB
#P OB98/GEN NMR

erre ene a

0 1
  C      156.277      66.657      40.413
  O      155.685      66.554      41.690
  P      156.028      67.543      42.898
  C      158.115      68.126      44.332
  O      157.530      67.239      43.384
  C      159.160      67.443      45.226
  O      158.510      66.469      46.068
  C      160.164      66.668      44.366
  O      161.265      67.335      43.782
  C      160.523      65.437      45.189
  O      161.752      65.591      45.900
  C      159.352      65.310      46.166
  N      158.810      60.360      47.119
  C      159.618      61.284      47.751
  N      160.528      60.780      48.614
  N      159.552      62.573      47.535
  C      158.660      62.913      46.575
  C      157.797      62.092      45.890
  C      157.851      60.676      46.168
  O      157.210      59.816      45.568
  N      157.087      62.777      44.937
  C      157.550      64.008      45.016
  N      158.534      64.130      45.967
  O      154.966      67.736      43.931
  O      156.204      68.946      42.118
  H      162.462      65.724      45.245
  H      155.880      69.652      42.710
  H      158.961      59.371      47.267
  H      157.233      64.832      44.389
  H      159.715      65.276      47.201
  H      160.649      64.562      44.541
  H      160.703      59.789      48.694
  H      159.606      66.277      43.506
  H      161.245      61.405      48.964
  H      159.625      68.162      45.905
  H      157.303      68.542      44.935
  H      158.585      68.961      43.806
  P      161.994      66.945      42.413
  C      163.419      65.033      41.487
  O      162.667      65.504      42.592
  O      163.260      67.924      42.347
  O      161.155      67.099      41.188
  H      163.558      68.013      41.423
  H      163.566      63.955      41.590
  H      164.396      65.525      41.474
  H      162.899      65.232      40.547
  H      155.890      65.888      39.777
  H      157.338      66.546      40.502
  H      156.052      67.615      39.992

 3  4  5  6  7  8  9  10  11  12  23  26  30  31 0
 6-311+G(2d,p)
 ****
 33  35  36  37  38 0
 6-311+G(2d,p)
 ****
 1  2  13  14  15  16  17  18  19  20  21  22  24  25 0
 3-21G
 ****
 27  28  29  32  34  39  40  41  42  43  44  45  46  47  48  49 0
 3-21G
 ****


