%nproc=1
%NoSave
%Mem=1900MB
#P OB98/GEN NMR

erre ene a

0 1
  C      291.792    -280.818    -175.098
  O      293.006    -281.092    -174.424
  P      293.133    -282.390    -173.497
  C      295.712    -282.190    -173.793
  O      294.627    -282.407    -172.911
  C      297.037    -282.100    -173.018
  O      296.958    -280.958    -172.132
  C      297.339    -283.297    -172.123
  O      298.733    -283.290    -171.807
  C      296.537    -282.967    -170.878
  O      296.994    -283.683    -169.736
  C      296.667    -281.426    -170.796
  N      295.430    -280.802    -170.290
  C      295.219    -280.846    -168.917
  O      296.044    -281.303    -168.126
  N      293.993    -280.426    -168.484
  C      292.968    -280.019    -169.291
  O      291.797    -279.944    -168.932
  C      293.328    -279.768    -170.699
  C      294.518    -280.192    -171.133
  O      293.123    -283.590    -174.558
  O      292.055    -282.542    -172.481
  H      297.975    -283.620    -169.734
  H      292.222    -283.956    -174.642
  H      293.789    -280.591    -167.508
  H      292.593    -279.306    -171.340
  H      294.792    -280.067    -172.176
  H      297.490    -281.128    -170.133
  H      295.488    -283.246    -171.048
  H      297.055    -284.263    -172.547
  H      297.855    -281.926    -173.723
  H      295.538    -281.275    -174.360
  H      295.777    -283.004    -174.520
  P      299.668    -284.384    -172.513
  C      301.158    -282.829    -173.912
  O      301.077    -283.668    -172.778
  O      299.074    -285.091    -173.688
  O      300.005    -285.399    -171.318
  H      300.314    -286.247    -171.684
  H      301.899    -282.048    -173.714
  H      300.197    -282.359    -174.134
  H      301.484    -283.417    -174.774
  H      291.894    -279.916    -175.665
  H      291.005    -280.702    -174.382
  H      291.559    -281.629    -175.756

 3  4  5  6  7  8  9  10  11  12  13  23  28  29  30  31  32 0
 6-311+G(2d,p)
 ****
 33  34 0
 6-311+G(2d,p)
 ****
 1  2  14  15  16  17  18  19  20  21  22  24  25  26  27 0
 3-21G
 ****
 35  36  37  38  39  40  41  42  43  44  45 0
 3-21G
 ****


