%nproc=1
%NoSave
%Mem=1900MB
#P OB98/GEN NMR

erre ene a

0 1
  C     -162.696     -27.739    -120.194
  O     -164.029     -28.080    -120.591
  P     -164.786     -29.198    -119.724
  C     -166.060     -28.238    -117.680
  O     -166.096     -28.533    -119.070
  C     -167.190     -27.273    -117.281
  O     -167.196     -26.101    -118.147
  C     -168.587     -27.898    -117.363
  O     -169.390     -27.315    -116.325
  C     -169.103     -27.410    -118.706
  O     -170.524     -27.495    -118.787
  C     -168.519     -25.995    -118.723
  N     -170.978     -23.129    -122.168
  C     -171.293     -23.500    -120.910
  N     -170.590     -24.290    -120.061
  C     -169.428     -24.666    -120.623
  C     -168.973     -24.373    -121.902
  C     -169.808     -23.564    -122.698
  N     -169.493     -23.204    -123.991
  N     -167.750     -24.982    -122.133
  C     -167.482     -25.636    -121.016
  N     -168.451     -25.448    -120.067
  O     -163.808     -29.411    -118.475
  O     -165.021     -30.481    -120.464
  H     -170.904     -26.845    -118.153
  H     -163.358     -30.277    -118.551
  H     -172.241     -23.122    -120.532
  H     -166.613     -26.254    -120.845
  H     -169.106     -25.294    -118.118
  H     -168.677     -28.019    -119.512
  H     -168.607     -28.990    -117.281
  H     -166.998     -26.927    -116.257
  H     -165.096     -27.791    -117.414
  H     -170.160     -22.650    -124.503
  H     -168.646     -23.563    -124.412
  H     -166.121     -29.178    -117.115
  P     -170.052     -28.334    -115.275
  C     -167.955     -29.309    -114.080
  O     -169.048     -28.403    -114.026
  O     -169.886     -29.764    -115.980
  O     -171.479     -28.030    -114.949
  H     -170.574     -30.378    -115.660
  H     -167.073     -28.821    -113.653
  H     -167.724     -29.609    -115.111
  H     -168.193     -30.192    -113.492
  H     -162.310     -26.987    -120.850
  H     -162.075     -28.609    -120.244
  H     -162.707     -27.366    -119.191

 3  4  5  6  7  8  9  10  11  12  22  25  29  30  31  32 0
 6-311+G(2d,p)
 ****
 33  36  37 0
 6-311+G(2d,p)
 ****
 1  2  13  14  15  16  17  18  19  20  21  23  24  26 0
 3-21G
 ****
 27  28  34  35  38  39  40  41  42  43  44  45  46  47  48 0
 3-21G
 ****


