%nproc=1
%NoSave
%Mem=1900MB
#P OB98/GEN NMR

erre ene a

0 1
  C     -365.735    -471.546      35.396
  O     -365.066    -470.317      35.597
  P     -365.118    -469.697      37.087
  C     -367.532    -468.742      37.422
  O     -366.640    -469.839      37.576
  C     -368.245    -468.465      38.747
  O     -368.874    -469.666      39.237
  C     -367.323    -467.980      39.858
  O     -367.073    -466.593      39.727
  C     -368.129    -468.348      41.099
  O     -369.147    -467.357      41.363
  C     -368.750    -469.689      40.687
  N     -367.825    -472.860      44.518
  C     -368.536    -471.669      44.499
  N     -369.118    -471.299      45.659
  N     -368.666    -470.920      43.437
  C     -368.016    -471.408      42.348
  C     -367.272    -472.559      42.254
  C     -367.181    -473.409      43.417
  O     -366.648    -474.513      43.465
  N     -366.749    -472.715      40.993
  C     -367.204    -471.671      40.329
  N     -367.998    -470.855      41.099
  O     -364.933    -468.128      36.828
  O     -364.107    -470.254      38.043
  H     -369.624    -467.609      42.171
  H     -364.004    -467.863      36.987
  H     -367.777    -473.400      45.365
  H     -367.010    -471.474      39.284
  H     -369.768    -469.811      41.092
  H     -367.506    -468.403      41.993
  H     -369.044    -471.813      46.520
  H     -366.380    -468.549      39.847
  H     -369.642    -470.422      45.666
  H     -369.030    -467.727      38.552
  H     -368.272    -468.990      36.650
  H     -366.972    -467.861      37.089
  P     -365.558    -466.092      39.888
  C     -365.686    -465.475      42.410
  O     -365.144    -466.327      41.418
  O     -365.680    -464.500      39.760
  O     -364.613    -466.650      38.871
  H     -364.896    -464.148      39.295
  H     -365.765    -466.035      43.346
  H     -366.688    -465.115      42.126
  H     -365.025    -464.620      42.555
  H     -365.627    -471.848      34.375
  H     -366.774    -471.428      35.625
  H     -365.311    -472.292      36.035

 3  4  5  6  7  8  9  10  11  12  23  26  30  31 0
 6-311+G(2d,p)
 ****
 33  35  36  37  38 0
 6-311+G(2d,p)
 ****
 1  2  13  14  15  16  17  18  19  20  21  22  24  25 0
 3-21G
 ****
 27  28  29  32  34  39  40  41  42  43  44  45  46  47  48  49 0
 3-21G
 ****


