%nproc=1
%NoSave
%Mem=1900MB
#P OB98/GEN NMR

erre ene a

0 1
  C     -724.865     -38.427      20.900
  O     -724.311     -39.528      21.636
  P     -723.812     -39.293      23.132
  C     -724.793     -41.271      24.503
  O     -724.900     -39.892      24.163
  C     -726.154     -41.949      24.429
  O     -726.622     -42.052      23.061
  C     -726.137     -43.384      24.929
  O     -725.946     -43.574      26.321
  C     -727.398     -43.972      24.318
  O     -728.555     -43.658      25.106
  C     -727.448     -43.232      22.950
  N     -727.033     -44.074      21.838
  C     -727.828     -45.192      21.581
  O     -728.795     -45.489      22.278
  N     -727.437     -45.963      20.528
  C     -726.336     -45.769      19.740
  O     -726.024     -46.515      18.824
  C     -725.524     -44.589      20.075
  C     -725.900     -43.802      21.092
  O     -723.328     -37.926      23.458
  O     -722.613     -40.359      23.274
  H     -728.326     -43.808      26.040
  H     -721.888     -39.927      23.765
  H     -728.007     -46.775      20.317
  H     -724.634     -44.401      19.472
  H     -725.308     -42.930      21.357
  H     -728.473     -42.890      22.750
  H     -727.351     -45.064      24.249
  H     -725.290     -43.903      24.454
  H     -726.882     -41.343      24.982
  H     -724.376     -41.363      25.514
  H     -724.073     -41.744      23.826
  P     -724.505     -43.565      27.021
  C     -724.872     -41.969      29.030
  O     -724.305     -42.149      27.761
  O     -723.345     -44.094      26.227
  O     -724.741     -44.538      28.266
  H     -723.910     -45.020      28.456
  H     -724.654     -40.949      29.370
  H     -724.430     -42.673      29.750
  H     -725.955     -42.098      29.002
  H     -725.146     -38.757      19.922
  H     -724.134     -37.650      20.817
  H     -725.727     -38.053      21.412

 3  4  5  6  7  8  9  10  11  12  13  23  28  29  30  31  32 0
 6-311+G(2d,p)
 ****
 33  34 0
 6-311+G(2d,p)
 ****
 1  2  14  15  16  17  18  19  20  21  22  24  25  26  27 0
 3-21G
 ****
 35  36  37  38  39  40  41  42  43  44  45 0
 3-21G
 ****


