%nproc=1
%NoSave
%Mem=1900MB
#P OB98/GEN NMR

erre ene a

0 1
  C     -169.461    -117.833     -49.477
  O     -169.126    -118.620     -50.602
  H     -170.022    -118.454     -48.773
  H     -170.091    -116.992     -49.777
  H     -168.561    -117.465     -48.979
  P     -168.184    -117.989     -51.734
  C     -166.853    -120.145     -52.204
  O     -167.771    -119.187     -52.716
  C     -167.134    -121.514     -52.816
  O     -168.327    -122.086     -52.237
  C     -167.379    -121.478     -54.321
  O     -166.165    -121.313     -55.026
  C     -168.068    -122.819     -54.521
  O     -167.114    -123.892     -54.549
  C     -168.948    -122.910     -53.251
  N     -170.333    -122.500     -53.489
  C     -171.038    -123.243     -54.430
  O     -170.552    -124.190     -55.045
  N     -172.320    -122.829     -54.677
  C     -172.913    -121.715     -54.153
  O     -173.975    -121.258     -54.564
  C     -172.148    -121.015     -53.110
  C     -170.906    -121.423     -52.841
  O     -167.049    -117.156     -51.243
  O     -169.198    -117.128     -52.629
  H     -169.118    -116.185     -52.389
  H     -166.520    -123.756     -53.786
  H     -172.824    -123.331     -55.392
  H     -172.609    -120.165     -52.623
  H     -170.313    -120.904     -52.097
  H     -168.958    -123.937     -52.864
  H     -168.627    -122.864     -55.459
  H     -168.085    -120.678     -54.568
  H     -166.291    -122.176     -52.575
  H     -166.977    -120.200     -51.117
  H     -165.832    -119.820     -52.430
  P     -166.014    -120.198     -56.164
  C     -163.464    -120.427     -56.288
  O     -164.688    -120.523     -57.004
  O     -166.113    -118.788     -55.684
  O     -167.188    -120.533     -57.201
  H     -167.721    -119.728     -57.349
  H     -162.650    -120.663     -56.941
  H     -163.475    -121.115     -55.469
  H     -163.346    -119.431     -55.916

 6  7  8  9  10  11  12  13  14  15  16  27  31  32  33  34  35 0
 6-311+G(2d,p)
 ****
 36  37 0
 6-311+G(2d,p)
 ****
 1  2  3  4  5  17  18  19  20  21  22  23  24  25 0
 3-21G
 ****
 26  28  29  30  38  39  40  41  42  43  44  45 0
 3-21G
 ****


