%nproc=1
%NoSave
%Mem=1900MB
#P OB98/GEN NMR

erre ene a

0 1
  C       50.011    -134.412       1.464
  O       49.722    -135.067       0.246
  H       49.279    -133.615       1.615
  H       51.009    -133.969       1.419
  H       49.950    -135.113       2.299
  P       50.629    -136.338      -0.127
  C       51.257    -138.258       1.499
  O       50.214    -137.506       0.896
  C       50.690    -139.453       2.262
  O       49.756    -138.967       3.272
  C       49.933    -140.462       1.384
  O       50.165    -141.773       1.915
  C       48.477    -140.101       1.634
  O       47.588    -141.174       1.332
  C       48.541    -139.727       3.114
  N       44.318    -139.984       5.835
  C       45.322    -140.914       5.646
  N       45.181    -142.098       6.280
  N       46.373    -140.703       4.900
  C       46.401    -139.463       4.354
  C       45.471    -138.457       4.457
  C       44.297    -138.714       5.265
  O       43.366    -137.937       5.453
  N       45.850    -137.357       3.727
  C       47.006    -137.700       3.187
  N       47.381    -138.968       3.537
  O       52.080    -135.891       0.378
  O       50.631    -136.722      -1.568
  H       46.671    -140.841       1.428
  H       52.582    -135.486      -0.353
  H       43.522    -140.203       6.408
  H       47.604    -137.075       2.538
  H       48.600    -140.608       3.765
  H       48.191    -139.237       1.022
  H       44.422    -142.314       6.907
  H       50.208    -140.436       0.325
  H       45.929    -142.776       6.190
  H       51.509    -139.942       2.801
  H       51.802    -137.612       2.196
  H       51.947    -138.604       0.722
  P       50.971    -142.819       1.009
  C       53.467    -142.736       0.283
  O       52.531    -142.673       1.348
  O       50.866    -142.176      -0.456
  O       50.426    -144.208       1.042
  H       50.917    -142.879      -1.129
  H       54.458    -142.623       0.672
  H       53.266    -141.951      -0.415
  H       53.383    -143.682      -0.210

 6  7  8  9  10  11  12  13  14  15  26  29  33  34 0
 6-311+G(2d,p)
 ****
 36  38  39  40  41 0
 6-311+G(2d,p)
 ****
 1  2  3  4  5  16  17  18  19  20  21  22  23  24  25 0
 3-21G
 ****
 27  28  30  31  32  35  37  42  43  44  45  46  47 0
 3-21G
 ****
 48  49 0
 3-21G
 ****


