%nproc=1
%NoSave
%Mem=1900MB
#P OB98/GEN NMR

erre ene a

0 1
  C     -123.353     407.609     398.229
  O     -124.141     407.925     397.098
  H     -123.344     406.520     398.353
  H     -123.769     408.059     399.133
  H     -122.326     407.951     398.080
  P     -124.457     409.465     396.784
  C     -126.617     409.551     398.192
  O     -125.278     410.031     398.043
  C     -127.366     410.366     399.248
  O     -128.793     410.125     399.092
  C     -126.978     410.003     400.688
  O     -126.981     411.201     401.474
  C     -128.106     409.086     401.121
  O     -128.249     409.055     402.525
  C     -129.308     409.667     400.356
  N     -130.361     408.667     400.181
  C     -131.464     408.771     401.036
  O     -131.528     409.689     401.859
  N     -132.449     407.819     400.982
  C     -132.311     406.805     400.183
  N     -133.298     405.869     400.205
  C     -131.142     406.628     399.290
  C     -130.212     407.586     399.344
  O     -125.073     409.755     395.454
  O     -123.029     410.178     396.937
  H     -128.419     409.966     402.854
  H     -122.571     410.197     396.077
  H     -131.071     405.756     398.649
  H     -129.321     407.534     398.726
  H     -129.724     410.534     400.886
  H     -127.904     408.064     400.777
  H     -126.002     409.510     400.762
  H     -127.197     411.430     399.052
  H     -134.062     406.014     400.849
  H     -126.564     408.502     398.503
  H     -133.280     405.009     399.659
  H     -127.138     409.612     397.231
  P     -125.639     412.053     401.664
  C     -124.582     410.585     403.472
  O     -124.452     411.076     402.137
  O     -125.791     413.294     402.489
  O     -125.211     412.437     400.159
  H     -124.736     413.290     400.165
  H     -123.754     409.947     403.700
  H     -125.493     410.031     403.561
  H     -124.597     411.408     404.155

 6  7  8  9  10  11  12  13  14  15  16  26  30  31  32  33  35 0
 6-311+G(2d,p)
 ****
 37  38 0
 6-311+G(2d,p)
 ****
 1  2  3  4  5  17  18  19  20  21  22  23  24  25 0
 3-21G
 ****
 27  28  29  34  36  39  40  41  42  43  44  45  46 0
 3-21G
 ****


