%nproc=1
%NoSave
%Mem=1900MB
#P OB98/GEN NMR

erre ene a

0 1
  C      447.913    -683.686    -684.098
  O      447.718    -684.006    -682.717
  P      446.872    -683.000    -681.796
  C      445.733    -684.846    -680.390
  O      446.589    -683.712    -680.382
  C      446.088    -685.810    -679.242
  O      447.272    -686.587    -679.577
  C      446.385    -685.069    -677.929
  O      445.970    -685.863    -676.805
  C      447.907    -685.015    -677.913
  O      448.416    -684.819    -676.590
  C      448.239    -686.375    -678.539
  N      453.256    -686.309    -677.420
  C      452.157    -686.319    -676.632
  N      450.850    -686.356    -677.001
  C      450.735    -686.404    -678.340
  C      451.763    -686.401    -679.271
  C      453.085    -686.346    -678.768
  N      454.196    -686.307    -679.562
  N      451.272    -686.459    -680.558
  C      449.951    -686.430    -680.399
  N      449.584    -686.429    -679.086
  O      445.671    -682.391    -682.448
  O      447.964    -681.884    -681.413
  H      448.032    -683.984    -676.268
  H      447.530    -681.001    -681.467
  H      452.344    -686.276    -675.565
  H      449.234    -686.403    -681.217
  H      448.143    -687.190    -677.806
  H      448.256    -684.194    -678.552
  H      445.933    -684.076    -677.857
  H      445.255    -686.522    -679.114
  H      445.826    -685.373    -681.351
  H      455.091    -686.145    -679.131
  H      454.083    -686.183    -680.571
  H      444.690    -684.510    -680.325
  P      444.567    -685.430    -676.122
  C      443.869    -687.895    -675.567
  O      444.216    -686.614    -675.101
  O      443.507    -685.074    -677.124
  O      445.014    -684.200    -675.191
  H      445.788    -684.388    -674.615
  H      443.789    -688.586    -674.723
  H      444.637    -688.276    -676.246
  H      442.905    -687.871    -676.091
  H      448.493    -684.455    -684.564
  H      448.428    -682.752    -684.178
  H      446.963    -683.612    -684.585

 3  4  5  6  7  8  9  10  11  12  22  25  29  30  31  32 0
 6-311+G(2d,p)
 ****
 33  36  37 0
 6-311+G(2d,p)
 ****
 1  2  13  14  15  16  17  18  19  20  21  23  24  26 0
 3-21G
 ****
 27  28  34  35  38  39  40  41  42  43  44  45  46  47  48 0
 3-21G
 ****


