%nproc=1
%NoSave
%Mem=1900MB
#P OB98/GEN NMR

erre ene a

0 1
  C     -245.476     549.304     -19.934
  O     -244.142     549.291     -19.461
  H     -245.550     550.016     -20.762
  H     -246.167     549.619     -19.146
  H     -245.759     548.312     -20.295
  P     -243.812     548.438     -18.145
  C     -242.779     546.390     -19.341
  O     -243.879     546.904     -18.598
  C     -242.560     544.919     -19.002
  O     -242.193     544.776     -17.616
  C     -243.807     544.068     -19.192
  O     -244.039     543.810     -20.562
  C     -243.459     542.857     -18.349
  O     -242.583     541.966     -19.050
  C     -242.733     543.515     -17.151
  N     -243.607     543.712     -15.999
  C     -243.753     542.611     -15.146
  O     -243.160     541.561     -15.376
  N     -244.586     542.734     -14.063
  C     -245.205     543.851     -13.839
  N     -246.016     543.903     -12.749
  C     -245.070     545.036     -14.706
  C     -244.265     544.896     -15.761
  O     -244.610     548.756     -16.917
  O     -242.246     548.682     -17.921
  H     -241.785     542.491     -19.265
  H     -242.099     549.465     -17.358
  H     -245.599     545.949     -14.478
  H     -244.109     545.721     -16.448
  H     -241.879     542.902     -16.834
  H     -244.348     542.297     -18.066
  H     -244.674     544.560     -18.739
  H     -241.729     544.543     -19.610
  H     -246.087     543.062     -12.187
  H     -241.900     546.978     -19.062
  H     -246.475     544.742     -12.429
  H     -242.949     546.509     -20.417
  P     -245.515     543.481     -21.092
  C     -246.266     545.834     -20.354
  O     -246.493     544.431     -20.246
  O     -245.879     542.035     -21.105
  O     -245.535     544.154     -22.547
  H     -245.010     543.624     -23.196
  H     -246.976     546.358     -19.749
  H     -246.376     546.136     -21.375
  H     -245.275     546.062     -20.020

 6  7  8  9  10  11  12  13  14  15  16  26  30  31  32  33  35 0
 6-311+G(2d,p)
 ****
 37  38 0
 6-311+G(2d,p)
 ****
 1  2  3  4  5  17  18  19  20  21  22  23  24  25 0
 3-21G
 ****
 27  28  29  34  36  39  40  41  42  43  44  45  46 0
 3-21G
 ****


