%nproc=1
%NoSave
%Mem=1900MB
#P OB98/GEN NMR

erre ene a

0 1
  C       33.358      40.616      77.231
  O       33.209      41.841      77.918
  H       34.345      40.206      77.459
  H       33.282      40.768      76.152
  H       32.599      39.899      77.561
  P       31.865      42.686      77.702
  C       32.800      44.861      76.673
  O       32.266      44.234      77.836
  C       33.932      45.819      77.063
  O       35.059      45.017      77.493
  C       34.386      46.701      75.891
  O       34.385      48.092      76.204
  C       35.709      46.072      75.473
  O       36.610      46.957      74.841
  C       36.228      45.456      76.777
  N       37.158      44.346      76.579
  C       38.505      44.663      76.426
  O       38.975      45.797      76.469
  N       39.343      43.595      76.224
  C       38.976      42.286      76.154
  O       39.773      41.373      75.977
  C       37.537      42.018      76.301
  C       36.707      43.044      76.502
  O       30.699      42.269      78.533
  O       31.556      42.529      76.138
  H       37.505      46.568      74.907
  H       30.842      41.878      76.011
  H       40.321      43.812      76.123
  H       37.209      40.989      76.240
  H       35.639      42.881      76.616
  H       36.734      46.209      77.381
  H       35.496      45.267      74.759
  H       33.681      46.631      75.055
  H       33.607      46.419      77.921
  H       31.989      45.410      76.186
  H       33.180      44.098      75.986
  P       33.206      49.103      75.842
  C       34.459      51.315      75.197
  O       33.708      50.589      76.159
  O       31.853      48.725      76.344
  O       33.159      49.055      74.229
  H       32.223      49.190      73.974
  H       34.701      52.281      75.589
  H       33.881      51.427      74.304
  H       35.361      50.784      74.974

 6  7  8  9  10  11  12  13  14  15  16  26  31  32  33  34  35 0
 6-311+G(2d,p)
 ****
 36  37 0
 6-311+G(2d,p)
 ****
 1  2  3  4  5  17  18  19  20  21  22  23  24  25 0
 3-21G
 ****
 27  28  29  30  38  39  40  41  42  43  44  45 0
 3-21G
 ****


