%nproc=1
%NoSave
%Mem=1900MB
#P OB98/GEN NMR

erre ene a

0 1
  C     -379.123     299.717     128.017
  O     -378.629     298.692     127.140
  P     -377.145     298.088     127.234
  C     -377.552     295.929     128.593
  O     -377.259     296.491     127.323
  C     -377.065     294.473     128.666
  O     -377.018     294.030     130.048
  C     -377.957     293.453     127.980
  O     -377.866     293.514     126.572
  C     -377.442     292.149     128.587
  O     -376.289     291.665     127.883
  C     -377.047     292.585     130.014
  N     -377.930     292.054     131.038
  C     -377.969     290.665     131.173
  O     -377.344     289.946     130.398
  N     -378.738     290.129     132.184
  C     -379.473     290.901     132.916
  N     -380.202     290.311     133.906
  C     -379.568     292.356     132.711
  C     -378.777     292.864     131.770
  O     -376.313     298.692     128.319
  O     -376.492     298.349     125.794
  H     -375.522     298.406     125.881
  H     -376.544     291.604     126.939
  H     -380.232     292.960     133.321
  H     -378.767     293.928     131.564
  H     -376.019     292.273     130.235
  H     -378.193     291.351     128.562
  H     -378.997     293.615     128.293
  H     -376.047     294.433     128.253
  H     -380.104     289.311     134.025
  H     -378.639     295.941     128.740
  H     -380.787     290.827     134.546
  H     -377.087     296.536     129.376
  P     -379.230     293.722     125.760
  C     -379.515     296.185     126.526
  O     -379.379     295.285     125.444
  O     -380.366     293.438     126.851
  O     -379.387     292.826     124.573
  H     -381.107     292.953     126.439
  H     -379.128     297.160     126.224
  H     -378.966     295.840     127.411
  H     -380.576     296.292     126.780
  H     -380.134     299.951     127.758
  H     -378.517     300.593     127.918
  H     -379.086     299.370     129.028

 3  4  5  6  7  8  9  10  11  12  13  24  27  28  29  30  32 0
 6-311+G(2d,p)
 ****
 34  35 0
 6-311+G(2d,p)
 ****
 1  2  14  15  16  17  18  19  20  21  22  23  25  26 0
 3-21G
 ****
 31  33  36  37  38  39  40  41  42  43  44  45  46 0
 3-21G
 ****


