%nproc=1
%NoSave
%Mem=1900MB
#P OB98/GEN NMR

erre ene a

0 1
  C      709.384    -183.280    -302.806
  O      709.402    -184.588    -303.351
  P      710.697    -185.240    -304.014
  C      712.246    -184.749    -306.057
  O      711.185    -184.291    -305.218
  C      712.345    -183.981    -307.378
  O      711.135    -184.184    -308.137
  C      712.433    -182.473    -307.113
  O      713.682    -181.882    -306.812
  C      711.676    -181.828    -308.269
  O      712.553    -181.371    -309.307
  C      710.785    -182.944    -308.790
  N      706.984    -179.596    -309.060
  C      708.238    -179.537    -309.631
  N      708.573    -178.352    -310.200
  N      709.080    -180.548    -309.639
  C      708.634    -181.628    -308.961
  C      707.410    -181.803    -308.351
  C      706.475    -180.703    -308.381
  O      705.385    -180.671    -307.814
  N      707.332    -183.000    -307.686
  C      708.525    -183.544    -307.864
  N      709.358    -182.721    -308.584
  O      710.669    -186.716    -304.238
  O      711.818    -184.949    -302.879
  H      713.152    -180.693    -308.903
  H      712.437    -185.701    -302.883
  H      706.405    -178.759    -309.010
  H      708.846    -184.491    -307.447
  H      710.935    -183.105    -309.853
  H      711.122    -180.947    -307.912
  H      708.020    -177.519    -310.085
  H      711.820    -182.277    -306.224
  H      709.542    -178.228    -310.480
  H      713.163    -184.372    -307.995
  H      712.097    -185.818    -306.225
  H      713.201    -184.652    -305.503
  P      713.958    -180.800    -305.667
  C      713.535    -178.314    -305.217
  O      713.431    -179.379    -306.160
  O      715.562    -180.612    -305.690
  O      713.512    -181.206    -304.287
  H      715.854    -180.259    -304.819
  H      712.874    -177.499    -305.539
  H      714.564    -177.955    -305.201
  H      713.236    -178.649    -304.225
  H      708.408    -183.067    -302.421
  H      709.628    -182.572    -303.570
  H      710.102    -183.213    -302.015

 3  4  5  6  7  8  9  10  11  12  23  26  30  31 0
 6-311+G(2d,p)
 ****
 33  35  36  37  38 0
 6-311+G(2d,p)
 ****
 1  2  13  14  15  16  17  18  19  20  21  22  24  25 0
 3-21G
 ****
 27  28  29  32  34  39  40  41  42  43  44  45  46  47  48  49 0
 3-21G
 ****


