%nproc=1
%NoSave
%Mem=1900MB
#P OB98/GEN NMR

erre ene a

0 1
  C      156.787    -203.108     -25.137
  O      156.314    -201.771     -24.949
  P      154.864    -201.444     -25.556
  C      153.853    -202.674     -23.512
  O      153.796    -201.536     -24.359
  C      153.290    -202.365     -22.121
  O      153.985    -201.236     -21.512
  C      151.794    -202.021     -22.121
  O      151.245    -202.535     -20.900
  C      151.800    -200.505     -22.063
  O      150.542    -199.993     -21.627
  C      152.972    -200.286     -21.107
  N      152.448    -195.653     -19.174
  C      151.673    -196.781     -19.000
  N      150.632    -196.674     -18.146
  N      151.899    -197.915     -19.610
  C      152.996    -197.888     -20.403
  C      153.853    -196.837     -20.645
  C      153.573    -195.577     -19.991
  O      154.230    -194.550     -20.105
  N      154.876    -197.206     -21.490
  C      154.587    -198.458     -21.803
  N      153.495    -198.934     -21.130
  O      154.547    -202.731     -26.452
  O      154.819    -200.184     -26.355
  H      150.341    -200.405     -20.758
  H      154.716    -202.536     -27.392
  H      152.219    -194.797     -18.693
  H      155.150    -199.070     -22.490
  H      152.703    -200.493     -20.062
  H      152.018    -200.088     -23.053
  H      150.432    -195.844     -17.605
  H      151.241    -202.411     -22.979
  H      150.071    -197.498     -17.968
  H      153.464    -203.239     -21.478
  H      154.887    -203.013     -23.410
  H      153.309    -203.499     -23.985
  P      150.767    -204.064     -20.878
  C      152.784    -205.686     -20.902
  O      151.899    -204.909     -20.122
  O      150.928    -204.513     -22.410
  O      149.366    -204.273     -20.402
  H      150.185    -205.098     -22.656
  H      153.725    -205.805     -20.355
  H      152.996    -205.216     -21.867
  H      152.349    -206.673     -21.072
  H      157.756    -203.209     -24.695
  H      156.849    -203.320     -26.184
  H      156.110    -203.794     -24.673

 3  4  5  6  7  8  9  10  11  12  23  26  30  31 0
 6-311+G(2d,p)
 ****
 33  35  36  37  38 0
 6-311+G(2d,p)
 ****
 1  2  13  14  15  16  17  18  19  20  21  22  24  25 0
 3-21G
 ****
 27  28  29  32  34  39  40  41  42  43  44  45  46  47  48  49 0
 3-21G
 ****


