%nproc=1
%NoSave
%Mem=1900MB
#P OB98/GEN NMR

erre ene a

0 1
  C      467.280    -273.201    1134.607
  O      465.942    -273.393    1135.036
  H      467.770    -272.449    1135.234
  H      467.821    -274.147    1134.691
  H      467.290    -272.876    1133.560
  P      464.984    -272.119    1135.027
  C      464.584    -272.096    1132.463
  O      465.129    -271.428    1133.584
  C      463.880    -271.105    1131.539
  O      464.809    -270.019    1131.267
  C      463.416    -271.691    1130.191
  O      462.008    -271.503    1130.030
  C      464.146    -270.854    1129.142
  O      463.324    -270.532    1128.020
  C      464.562    -269.601    1129.910
  N      466.158    -266.132    1126.555
  C      464.994    -266.247    1127.200
  N      464.657    -267.138    1128.165
  C      465.703    -267.937    1128.459
  C      466.975    -267.898    1127.897
  C      467.174    -266.961    1126.874
  N      468.361    -266.859    1126.174
  N      467.789    -268.880    1128.455
  C      467.013    -269.520    1129.296
  N      465.742    -268.988    1129.328
  O      465.716    -271.088    1136.010
  O      463.577    -272.376    1135.455
  H      463.046    -271.386    1127.624
  H      465.070    -270.722    1136.652
  H      464.210    -265.564    1126.914
  H      467.291    -270.388    1129.884
  H      463.756    -268.858    1129.931
  H      465.026    -271.406    1128.800
  H      463.666    -272.759    1130.085
  H      463.036    -270.663    1132.078
  H      463.845    -272.832    1132.810
  H      468.394    -266.223    1125.389
  H      469.085    -267.544    1126.336
  H      465.379    -272.634    1131.933
  P      461.069    -272.780    1130.327
  C      459.877    -271.701    1132.374
  O      460.713    -272.747    1131.882
  O      462.095    -274.008    1130.212
  O      459.923    -272.918    1129.397
  H      461.620    -274.805    1129.945
  H      459.736    -271.823    1133.428
  H      458.928    -271.741    1131.881
  H      460.339    -270.755    1132.183

 6  7  8  9  10  11  12  13  14  15  25  28  32  33  34  35 0
 6-311+G(2d,p)
 ****
 36  39  40 0
 6-311+G(2d,p)
 ****
 1  2  3  4  5  16  17  18  19  20  21  22  23  24 0
 3-21G
 ****
 26  27  29  30  31  37  38  41  42  43  44  45  46  47  48 0
 3-21G
 ****


