%nproc=1
%NoSave
%Mem=1900MB
#P OB98/GEN NMR

erre ene a

0 1
  C      195.776     227.723      68.400
  O      195.500     229.107      68.359
  H      195.128     227.256      69.147
  H      196.816     227.557      68.692
  H      195.582     227.261      67.428
  P      196.226     229.971      67.219
  C      194.039     231.373      67.239
  O      195.456     231.380      67.151
  C      193.581     232.059      68.525
  O      193.836     231.172      69.645
  C      194.294     233.385      68.802
  O      193.350     234.304      69.361
  C      195.329     233.025      69.851
  O      195.712     234.141      70.653
  C      194.617     231.899      70.614
  N      195.571     231.031      71.301
  C      196.276     231.591      72.367
  O      196.085     232.770      72.687
  N      197.216     230.834      73.015
  C      197.496     229.647      72.578
  N      198.459     228.955      73.244
  C      196.827     229.036      71.412
  C      195.878     229.774      70.830
  O      195.780     229.247      65.864
  O      197.708     230.080      67.345
  H      196.498     233.886      71.183
  H      196.474     229.313      65.182
  H      197.110     228.055      71.070
  H      195.341     229.413      69.967
  H      193.923     232.314      71.356
  H      196.230     232.638      69.359
  H      194.748     233.826      67.910
  H      192.495     232.204      68.474
  H      198.907     229.415      74.029
  H      193.688     230.333      67.245
  H      198.789     228.043      72.966
  H      193.619     231.878      66.362
  P      192.551     235.234      68.325
  C      190.180     235.441      69.369
  O      191.443     236.052      69.143
  O      191.698     234.183      67.470
  O      193.438     236.061      67.454
  H      192.061     234.111      66.570
  H      189.555     236.109      69.925
  H      190.316     234.536      69.923
  H      189.718     235.219      68.430

 6  7  8  9  10  11  12  13  14  15  16  26  30  31  32  33  35 0
 6-311+G(2d,p)
 ****
 37  38 0
 6-311+G(2d,p)
 ****
 1  2  3  4  5  17  18  19  20  21  22  23  24  25 0
 3-21G
 ****
 27  28  29  34  36  39  40  41  42  43  44  45  46 0
 3-21G
 ****


