%nproc=1
%NoSave
%Mem=1900MB
#P OB98/GEN NMR

erre ene a

0 1
  C      608.929    1153.821     203.094
  O      608.418    1152.672     202.452
  H      608.963    1154.641     202.372
  H      609.937    1153.628     203.453
  H      608.290    1154.114     203.932
  P      608.054    1151.409     203.374
  C      605.534    1151.655     202.777
  O      606.523    1151.581     203.800
  C      604.150    1151.794     203.396
  O      603.847    1150.566     204.128
  C      604.011    1152.960     204.380
  O      602.695    1153.500     204.258
  C      604.135    1152.286     205.739
  O      603.552    1153.010     206.800
  C      603.440    1150.954     205.469
  N      603.795    1149.922     206.436
  C      602.838    1149.584     207.390
  O      601.692    1150.021     207.417
  N      603.248    1148.691     208.345
  C      604.492    1148.138     208.455
  O      604.801    1147.360     209.354
  C      605.460    1148.540     207.421
  C      605.079    1149.403     206.482
  O      608.861    1151.719     204.727
  O      608.393    1150.076     202.798
  H      609.754    1151.340     204.682
  H      602.594    1153.109     206.610
  H      602.562    1148.432     209.038
  H      606.462    1148.130     207.493
  H      605.774    1149.739     205.720
  H      602.354    1151.083     205.445
  H      605.200    1152.122     205.971
  H      604.757    1153.751     204.246
  H      603.403    1151.867     202.589
  H      605.569    1150.742     202.186
  H      605.755    1152.517     202.133
  P      602.506    1154.730     203.235
  C      600.830    1153.847     201.415
  O      602.174    1154.049     201.818
  O      604.001    1155.255     203.084
  O      601.521    1155.742     203.716
  H      604.658    1154.537     203.117
  H      600.813    1153.385     200.450
  H      600.326    1154.790     201.368
  H      600.337    1153.214     202.123

 6  7  8  9  10  11  12  13  14  15  16  27  31  32  33  34  35 0
 6-311+G(2d,p)
 ****
 36  37 0
 6-311+G(2d,p)
 ****
 1  2  3  4  5  17  18  19  20  21  22  23  24  25 0
 3-21G
 ****
 26  28  29  30  38  39  40  41  42  43  44  45 0
 3-21G
 ****


