%nproc=1
%NoSave
%Mem=1900MB
#P OB98/GEN NMR

erre ene a

0 1
  C      256.195    -553.005     101.910
  O      256.178    -552.486     103.227
  H      257.080    -552.624     101.396
  H      255.304    -552.682     101.364
  H      256.245    -554.096     101.938
  P      254.929    -552.900     104.144
  C      253.288    -551.140     103.192
  O      254.082    -551.547     104.299
  C      252.980    -549.645     103.274
  O      252.090    -549.381     104.372
  C      254.205    -548.765     103.495
  O      254.857    -548.502     102.263
  C      253.559    -547.507     104.058
  O      253.028    -546.711     102.982
  C      252.407    -548.071     104.909
  N      252.145    -545.793     109.505
  C      251.944    -545.320     108.255
  N      252.082    -545.964     107.078
  C      252.466    -547.238     107.273
  C      252.713    -547.861     108.488
  C      252.534    -547.082     109.646
  N      252.742    -547.569     110.917
  N      253.097    -549.173     108.298
  C      253.019    -549.354     106.997
  N      252.680    -548.205     106.330
  O      255.264    -553.614     105.409
  O      254.049    -553.741     103.102
  H      252.691    -545.888     103.382
  H      254.055    -553.313     102.227
  H      251.626    -544.283     108.194
  H      253.182    -550.300     106.492
  H      251.502    -547.455     104.824
  H      254.268    -546.879     104.602
  H      254.884    -549.188     104.245
  H      252.456    -549.359     102.353
  H      252.349    -551.707     103.170
  H      252.778    -546.899     111.668
  H      253.155    -548.487     111.010
  H      253.850    -551.363     102.280
  P      256.444    -548.679     102.111
  C      257.198    -546.552     103.345
  O      257.024    -547.185     102.082
  O      256.864    -549.562     100.988
  O      256.917    -549.220     103.538
  H      257.814    -549.606     103.469
  H      257.588    -545.566     103.199
  H      257.882    -547.122     103.938
  H      256.255    -546.492     103.847

 6  7  8  9  10  11  12  13  14  15  25  28  32  33  34  35 0
 6-311+G(2d,p)
 ****
 36  39  40 0
 6-311+G(2d,p)
 ****
 1  2  3  4  5  16  17  18  19  20  21  22  23  24 0
 3-21G
 ****
 26  27  29  30  31  37  38  41  42  43  44  45  46  47 0
 3-21G
 ****
 48 0
 3-21G
 ****


