%nproc=1
%NoSave
%Mem=1900MB
#P OB98/GEN NMR

erre ene a

0 1
  C      619.424      50.798     246.671
  O      620.032      49.506     246.811
  P      620.959      49.086     248.049
  C      619.282      47.341     249.009
  O      620.001      48.560     249.231
  C      619.134      46.563     250.320
  O      618.285      47.298     251.244
  C      618.450      45.204     250.177
  O      619.289      44.238     249.580
  C      618.087      44.909     251.639
  O      619.192      44.319     252.339
  C      617.787      46.315     252.197
  N      616.379      46.530     252.476
  C      616.021      46.738     253.810
  O      616.876      46.653     254.702
  N      614.713      47.007     254.107
  C      613.814      46.997     253.169
  N      612.537      47.298     253.521
  C      614.121      46.644     251.768
  C      615.405      46.421     251.492
  O      621.916      50.146     248.490
  O      621.738      47.763     247.587
  H      622.583      47.692     248.071
  H      619.315      43.427     251.947
  H      613.339      46.590     251.019
  H      615.720      46.182     250.488
  H      618.365      46.485     253.113
  H      617.244      44.212     251.713
  H      617.526      45.317     249.590
  H      620.127      46.447     250.772
  H      612.360      47.543     254.490
  H      619.854      46.738     248.296
  H      611.765      47.317     252.871
  H      618.309      47.583     248.564
  P      618.659      43.343     248.401
  C      619.305      44.882     246.409
  O      618.269      44.337     247.202
  O      617.232      42.887     248.997
  O      619.479      42.167     247.999
  H      617.054      41.968     248.731
  H      618.907      45.095     245.414
  H      620.153      44.191     246.309
  H      619.645      45.811     246.858
  H      618.857      50.829     245.764
  H      620.185      51.549     246.641
  H      618.776      50.979     247.503

 3  4  5  6  7  8  9  10  11  12  13  24  27  28  29  30  32 0
 6-311+G(2d,p)
 ****
 34  35 0
 6-311+G(2d,p)
 ****
 1  2  14  15  16  17  18  19  20  21  22  23  25  26 0
 3-21G
 ****
 31  33  36  37  38  39  40  41  42  43  44  45  46 0
 3-21G
 ****


