%nproc=1
%NoSave
%Mem=1900MB
#P OB98/GEN NMR

erre ene a

0 1
  C      -89.438     246.382     180.900
  O      -90.664     246.030     181.511
  H      -89.188     247.423     181.123
  H      -88.652     245.736     181.298
  H      -89.502     246.236     179.815
  P      -91.931     246.941     181.133
  C      -92.800     247.079     183.570
  O      -93.050     246.640     182.245
  C      -93.898     246.594     184.507
  O      -95.157     247.224     184.172
  C      -94.173     245.095     184.445
  O      -93.211     244.348     185.180
  C      -95.548     245.030     185.096
  O      -95.411     245.077     186.530
  C      -96.215     246.319     184.591
  N     -100.756     244.428     183.112
  C     -100.150     244.477     184.322
  N      -98.938     244.980     184.639
  C      -98.341     245.498     183.552
  C      -98.834     245.525     182.257
  C     -100.100     244.951     182.050
  N     -100.705     244.898     180.813
  N      -97.945     246.151     181.409
  C      -96.932     246.498     182.172
  N      -97.118     246.118     183.478
  O      -92.521     246.235     179.820
  O      -91.633     248.382     180.895
  H      -95.162     244.175     186.815
  H      -92.870     246.921     179.220
  H     -100.714     244.048     185.145
  H      -96.048     247.022     181.831
  H      -96.767     246.831     185.392
  H      -96.099     244.121     184.850
  H      -94.246     244.747     183.406
  H      -93.637     246.894     185.529
  H      -92.767     248.174     183.597
  H     -101.679     244.657     180.759
  H     -100.207     245.298     180.021
  H      -91.825     246.691     183.895
  P      -92.296     243.314     184.358
  C      -93.112     241.605     186.136
  O      -92.017     242.094     185.366
  O      -90.884     244.063     184.283
  O      -92.801     242.950     183.005
  H      -90.380     243.747     183.508
  H      -92.780     240.799     186.757
  H      -93.882     241.256     185.480
  H      -93.497     242.393     186.749

 6  7  8  9  10  11  12  13  14  15  25  28  32  33  34  35 0
 6-311+G(2d,p)
 ****
 36  39  40 0
 6-311+G(2d,p)
 ****
 1  2  3  4  5  16  17  18  19  20  21  22  23  24 0
 3-21G
 ****
 26  27  29  30  31  37  38  41  42  43  44  45  46  47  48 0
 3-21G
 ****


