%nproc=1
%NoSave
%Mem=1900MB
#P OB98/GEN NMR

erre ene a

0 1
  C     -675.658     -56.407    -634.777
  O     -676.748     -56.812    -635.581
  H     -675.004     -55.767    -635.370
  H     -675.087     -57.282    -634.451
  H     -676.003     -55.846    -633.906
  P     -677.966     -57.599    -634.895
  C     -679.304     -55.497    -634.230
  O     -678.570     -56.626    -633.772
  C     -680.230     -54.997    -633.126
  O     -681.125     -56.053    -632.712
  C     -679.509     -54.548    -631.861
  O     -678.910     -53.277    -632.043
  C     -680.650     -54.580    -630.857
  O     -681.463     -53.402    -630.968
  C     -681.429     -55.836    -631.317
  N     -681.124     -57.026    -630.523
  C     -682.165     -57.932    -630.337
  O     -683.300     -57.742    -630.774
  N     -681.859     -59.056    -629.614
  C     -680.662     -59.312    -629.006
  O     -680.456     -60.311    -628.323
  C     -679.612     -58.303    -629.206
  C     -679.884     -57.226    -629.945
  O     -677.663     -58.983    -634.428
  O     -679.099     -57.591    -636.024
  H     -682.187     -53.502    -630.320
  H     -679.116     -58.455    -636.479
  H     -682.605     -59.712    -629.461
  H     -678.653     -58.475    -628.734
  H     -679.124     -56.469    -630.102
  H     -682.511     -55.653    -631.255
  H     -680.300     -54.624    -629.825
  H     -678.760     -55.296    -631.566
  H     -680.843     -54.183    -633.536
  H     -679.899     -55.793    -635.104
  H     -678.600     -54.714    -634.528
  P     -677.558     -52.894    -631.283
  C     -675.736     -53.952    -632.744
  O     -676.497     -54.076    -631.549
  O     -677.720     -52.521    -629.847
  O     -676.964     -51.677    -632.135
  H     -677.089     -50.839    -631.647
  H     -675.065     -54.781    -632.827
  H     -675.175     -53.041    -632.717
  H     -676.395     -53.940    -633.587

 6  7  8  9  10  11  12  13  14  15  16  26  31  32  33  34  35 0
 6-311+G(2d,p)
 ****
 36  37 0
 6-311+G(2d,p)
 ****
 1  2  3  4  5  17  18  19  20  21  22  23  24  25 0
 3-21G
 ****
 27  28  29  30  38  39  40  41  42  43  44  45 0
 3-21G
 ****


