%nproc=1
%NoSave
%Mem=1900MB
#P OB98/GEN NMR

erre ene a

0 1
  C      373.973    -325.359     144.939
  O      373.193    -325.820     146.024
  H      374.447    -324.415     145.224
  H      373.340    -325.187     144.064
  H      374.754    -326.085     144.700
  P      372.365    -327.175     145.778
  C      370.418    -327.859     144.208
  O      371.429    -326.904     144.501
  C      369.836    -327.611     142.818
  O      370.848    -327.784     141.802
  C      368.679    -328.534     142.448
  O      367.453    -328.049     142.975
  C      368.732    -328.476     140.928
  O      368.100    -327.275     140.431
  C      370.244    -328.447     140.659
  N      371.228    -332.069     137.276
  C      370.511    -330.894     137.145
  N      369.948    -330.664     135.938
  N      370.350    -330.031     138.109
  C      370.917    -330.422     139.278
  C      371.648    -331.557     139.535
  C      371.869    -332.479     138.441
  O      372.561    -333.494     138.474
  N      372.077    -331.585     140.839
  C      371.574    -330.487     141.373
  N      370.854    -329.748     140.467
  O      371.324    -327.203     146.997
  O      373.177    -328.423     145.735
  H      368.677    -326.514     140.613
  H      371.219    -328.126     147.295
  H      371.349    -332.684     136.491
  H      371.707    -330.180     142.404
  H      370.485    -327.854     139.771
  H      368.194    -329.315     140.473
  H      369.793    -331.400     135.267
  H      368.873    -329.564     142.780
  H      369.363    -329.836     135.864
  H      369.516    -326.560     142.779
  H      369.624    -327.773     144.955
  H      370.849    -328.866     144.255
  P      366.112    -328.855     142.634
  C      364.718    -329.409     140.513
  O      365.895    -328.815     141.044
  O      364.965    -327.888     143.197
  O      366.022    -330.206     143.261
  H      364.602    -328.250     144.026
  H      364.715    -329.304     139.448
  H      363.857    -328.922     140.922
  H      364.696    -330.448     140.769

 6  7  8  9  10  11  12  13  14  15  26  29  33  34 0
 6-311+G(2d,p)
 ****
 36  38  39  40  41 0
 6-311+G(2d,p)
 ****
 1  2  3  4  5  16  17  18  19  20  21  22  23  24  25 0
 3-21G
 ****
 27  28  30  31  32  35  37  42  43  44  45  46  47 0
 3-21G
 ****
 48  49 0
 3-21G
 ****


