%nproc=1
%NoSave
%Mem=1900MB
#P OB98/GEN NMR

erre ene a

0 1
  C     -519.394     459.759    -394.127
  O     -519.515     460.612    -392.980
  P     -520.962     461.265    -392.720
  C     -520.977     460.135    -390.384
  O     -521.212     461.313    -391.144
  C     -521.407     460.346    -388.929
  O     -520.698     461.448    -388.310
  C     -522.890     460.687    -388.783
  O     -523.703     459.546    -388.965
  C     -522.913     461.266    -387.361
  O     -522.913     460.212    -386.392
  C     -521.575     462.026    -387.305
  N     -523.621     466.386    -385.572
  C     -523.666     465.115    -385.104
  N     -523.102     464.006    -385.627
  C     -522.404     464.306    -386.738
  C     -522.262     465.552    -387.329
  C     -522.904     466.630    -386.699
  N     -522.874     467.919    -387.184
  N     -521.476     465.472    -388.466
  C     -521.175     464.195    -388.567
  N     -521.706     463.449    -387.545
  O     -521.973     460.131    -393.233
  O     -521.164     462.557    -393.438
  H     -522.951     460.627    -385.503
  H     -522.395     460.411    -394.075
  H     -524.244     464.973    -384.194
  H     -520.583     463.753    -389.369
  H     -521.075     461.910    -386.335
  H     -523.786     461.888    -387.175
  H     -523.168     461.473    -389.506
  H     -521.188     459.431    -388.360
  H     -519.911     459.872    -390.405
  H     -523.431     468.619    -386.708
  H     -522.418     468.108    -388.069
  H     -521.522     459.301    -390.837
  P     -524.704     459.537    -390.222
  C     -525.443     457.220    -389.386
  O     -525.867     458.521    -389.772
  O     -523.883     458.691    -391.292
  O     -525.160     460.885    -390.665
  H     -523.488     457.881    -390.896
  H     -526.320     456.643    -389.074
  H     -524.753     457.282    -388.548
  H     -524.974     456.716    -390.234
  H     -518.392     459.389    -394.192
  H     -519.627     460.315    -395.011
  H     -520.073     458.937    -394.034

 3  4  5  6  7  8  9  10  11  12  22  25  29  30  31  32 0
 6-311+G(2d,p)
 ****
 33  36  37 0
 6-311+G(2d,p)
 ****
 1  2  13  14  15  16  17  18  19  20  21  23  24  26 0
 3-21G
 ****
 27  28  34  35  38  39  40  41  42  43  44  45  46  47  48 0
 3-21G
 ****


