%nproc=1
%NoSave
%Mem=1900MB
#P OB98/GEN NMR

erre ene a

0 1
  C      196.509     -89.765     419.276
  O      196.337     -90.314     417.983
  H      197.535     -89.953     419.602
  H      195.818     -90.240     419.979
  H      196.335     -88.687     419.255
  P      194.891     -90.126     417.315
  C      195.868     -88.343     415.685
  O      194.890     -88.661     416.663
  C      195.825     -86.847     415.349
  O      195.820     -86.089     416.598
  C      197.035     -86.354     414.541
  O      196.605     -85.233     413.745
  C      197.967     -85.870     415.637
  O      199.006     -85.080     415.108
  C      196.951     -85.191     416.551
  N      197.882     -81.576     420.048
  C      197.314     -81.517     418.820
  N      197.089     -82.524     417.954
  C      197.498     -83.698     418.468
  C      198.085     -83.916     419.705
  C      198.281     -82.782     420.514
  N      198.867     -82.836     421.757
  N      198.371     -85.257     419.881
  C      197.961     -85.838     418.770
  N      197.435     -84.935     417.888
  O      193.918     -89.982     418.578
  O      194.457     -91.222     416.401
  H      198.654     -84.235     414.752
  H      193.523     -90.848     418.795
  H      197.005     -80.530     418.494
  H      198.030     -86.898     418.550
  H      196.602     -84.238     416.135
  H      198.442     -86.716     416.145
  H      197.462     -87.119     413.888
  H      194.880     -86.621     414.840
  H      195.661     -88.930     414.783
  H      196.862     -88.601     416.065
  H      198.987     -81.977     422.270
  H      199.186     -83.727     422.113
  P      196.199     -85.475     412.207
  C      193.729     -84.693     412.570
  O      194.614     -85.711     412.122
  O      196.766     -86.954     411.942
  O      196.774     -84.503     411.225
  H      196.988     -87.054     410.996
  H      192.718     -85.017     412.441
  H      193.893     -83.802     412.001
  H      193.910     -84.493     413.605

 6  7  8  9  10  11  12  13  14  15  25  28  32  33  34  35 0
 6-311+G(2d,p)
 ****
 36  37  40 0
 6-311+G(2d,p)
 ****
 1  2  3  4  5  16  17  18  19  20  21  22  23  24 0
 3-21G
 ****
 26  27  29  30  31  38  39 41  42  43  44  45  46  47  48 0
 3-21G
 ****


