%nproc=1
%NoSave
%Mem=1900MB
#P OB98/GEN NMR

erre ene a

0 1
  C     -304.025    -108.282     152.613
  O     -304.501    -109.483     152.031
  P     -305.011    -110.632     153.029
  C     -302.752    -111.913     152.850
  O     -303.691    -111.252     153.695
  C     -302.093    -113.070     153.598
  O     -301.469    -112.587     154.802
  C     -303.056    -114.153     154.043
  O     -303.411    -114.981     152.952
  C     -302.246    -114.859     155.123
  O     -301.397    -115.868     154.552
  C     -301.407    -113.701     155.718
  N     -301.842    -113.324     157.054
  C     -301.667    -114.286     158.051
  O     -301.184    -115.387     157.770
  N     -302.078    -113.994     159.330
  C     -302.624    -112.845     159.581
  N     -303.007    -112.604     160.867
  C     -302.844    -111.808     158.553
  C     -302.442    -112.114     157.317
  O     -305.504    -111.785     152.033
  O     -306.082    -110.208     153.980
  H     -301.972    -116.648     154.412
  H     -306.189    -112.339     152.457
  H     -303.303    -110.864     158.817
  H     -302.569    -111.410     156.503
  H     -300.349    -113.995     155.778
  H     -302.887    -115.358     155.854
  H     -303.958    -113.709     154.487
  H     -301.309    -113.491     152.951
  H     -302.846    -113.337     161.550
  H     -301.981    -111.200     152.546
  H     -303.417    -111.731     161.168
  H     -303.270    -112.270     151.955
  P     -304.972    -115.236     152.685
  C     -304.795    -117.577     153.723
  O     -305.410    -116.305     153.799
  O     -304.943    -116.134     151.352
  O     -305.843    -114.036     152.538
  H     -305.854    -116.271     151.030
  H     -305.060    -118.146     154.615
  H     -303.706    -117.474     153.678
  H     -305.156    -118.112     152.842
  H     -303.719    -107.608     151.840
  H     -303.191    -108.499     153.247
  H     -304.805    -107.832     153.191

 3  4  5  6  7  8  9  10  11  12  13  21  23  27  28  29  30  32 0
 6-311+G(2d,p)
 ****
 34  35 0
 6-311+G(2d,p)
 ****
 1  2  14  15  16  17  18  19  20  22  24  25  26 0
 3-21G
 ****
 31  33  36  37  38  39  40  41  42  43  44  45  46 0
 3-21G
 ****


