%nproc=1
%NoSave
%Mem=1900MB
#P OB98/GEN NMR

erre ene a

0 1
  C     -241.339     -94.028       9.600
  O     -240.825     -92.717       9.761
  P     -239.512     -92.549      10.668
  C     -240.775     -92.304      12.930
  O     -239.913     -93.098      12.121
  C     -240.550     -92.611      14.408
  O     -240.716     -94.019      14.650
  C     -239.155     -92.274      14.905
  O     -239.025     -90.883      15.116
  C     -239.079     -93.104      16.180
  O     -239.634     -92.389      17.296
  C     -239.944     -94.338      15.828
  N     -239.150     -95.541      15.638
  C     -239.284     -96.525      16.622
  O     -240.029     -96.334      17.587
  N     -238.546     -97.678      16.509
  C     -237.741     -97.828      15.503
  N     -237.037     -98.992      15.437
  C     -237.555     -96.806      14.453
  C     -238.278     -95.694      14.585
  O     -239.418     -90.965      10.879
  O     -238.265     -93.120      10.078
  H     -240.589     -92.295      17.101
  H     -238.495     -90.693      11.044
  H     -236.870     -96.981      13.636
  H     -238.201     -94.892      13.861
  H     -240.669     -94.535      16.630
  H     -238.046     -93.352      16.445
  H     -238.397     -92.622      14.191
  H     -241.309     -92.069      14.991
  H     -237.183     -99.670      16.174
  H     -241.816     -92.531      12.676
  H     -236.404     -99.212      14.682
  H     -240.587     -91.245      12.718
  P     -237.672     -90.177      14.626
  C     -236.735     -90.002      17.008
  O     -236.578     -90.579      15.725
  O     -237.949     -88.635      14.975
  O     -237.282     -90.369      13.199
  H     -237.225     -88.081      14.628
  H     -236.028     -90.472      17.693
  H     -237.751     -90.166      17.379
  H     -236.522     -88.930      16.962
  H     -242.208     -93.996       8.977
  H     -241.600     -94.429      10.557
  H     -240.596     -94.649       9.144

 3  4  5  6  7  8  9  10  11  12  13  21  23  27  28  29  30  32 0
 6-311+G(2d,p)
 ****
 34  35 0
 6-311+G(2d,p)
 ****
 1  2  14  15  16  17  18  19  20  22  24  25  26 0
 3-21G
 ****
 31  33  36  37  38  39  40  41  42  43  44  45  46 0
 3-21G
 ****


