%nproc=1
%NoSave
%Mem=1900MB
#P OB98/GEN NMR

erre ene a

0 1
  C      722.949     447.605     -31.206
  O      722.228     448.761     -30.759
  P      722.944     450.030     -30.067
  C      722.029     449.807     -27.661
  O      723.168     449.730     -28.502
  C      722.274     450.702     -26.439
  O      721.067     450.784     -25.626
  C      723.416     450.232     -25.525
  O      724.103     451.412     -25.083
  C      722.648     449.567     -24.387
  O      723.415     449.403     -23.198
  C      721.471     450.541     -24.263
  N      720.345     450.058     -23.451
  C      720.297     450.446     -22.113
  O      721.190     451.112     -21.602
  N      719.211     450.041     -21.355
  C      718.283     449.316     -21.887
  N      717.230     448.961     -21.085
  C      718.308     448.871     -23.296
  C      719.347     449.280     -24.013
  O      722.234     451.328     -30.324
  O      724.423     450.070     -30.669
  H      724.702     450.999     -30.779
  H      722.899     448.871     -22.574
  H      717.504     448.275     -23.708
  H      719.432     449.024     -25.064
  H      721.831     451.495     -23.846
  H      722.332     448.567     -24.710
  H      724.135     449.576     -26.023
  H      722.467     451.722     -26.805
  H      717.247     449.286     -20.131
  H      721.785     448.793     -27.312
  H      716.450     448.403     -21.405
  H      721.172     450.172     -28.240
  P      725.649     451.628     -25.448
  C      726.559     450.080     -23.548
  O      726.456     450.330     -24.936
  O      726.097     452.731     -24.369
  O      725.933     452.104     -26.840
  H      726.849     453.227     -24.726
  H      726.378     449.016     -23.358
  H      725.848     450.677     -22.960
  H      727.582     450.321     -23.229
  H      722.265     446.899     -31.629
  H      723.455     447.158     -30.376
  H      723.665     447.895     -31.946

 3  4  5  6  7  8  9  10  11  12  13  24  27  28  29  30  32 0
 6-311+G(2d,p)
 ****
 34  35 0
 6-311+G(2d,p)
 ****
 1  2  14  15  16  17  18  19  20  21  22  23  25  26 0
 3-21G
 ****
 31  33  36  37  38  39  40  41  42  43  44  45  46 0
 3-21G
 ****


