%nproc=1
%NoSave
%Mem=1900MB
#P OB98/GEN NMR

erre ene a

0 1
  C      -73.939     -68.907    1005.528
  O      -74.520     -68.599    1004.281
  H      -72.978     -69.390    1005.352
  H      -74.583     -69.600    1006.075
  H      -73.778     -68.006    1006.119
  P      -75.801     -67.632    1004.239
  C      -74.695     -67.033    1001.978
  O      -75.905     -67.080    1002.733
  C      -74.897     -66.256    1000.673
  O      -75.646     -67.086     999.738
  C      -75.670     -64.945    1000.853
  O      -75.187     -64.024     999.852
  C      -77.094     -65.376    1000.521
  O      -77.909     -64.267    1000.225
  C      -76.830     -66.354     999.373
  N      -77.971     -67.240     999.120
  C      -78.982     -66.733     998.308
  O      -78.973     -65.578     997.849
  N      -80.048     -67.561     998.094
  C      -80.216     -68.798     998.636
  O      -81.203     -69.490     998.436
  C      -79.136     -69.268     999.514
  C      -78.082     -68.482     999.718
  O      -75.850     -66.576    1005.293
  O      -77.057     -68.621    1004.328
  H      -77.459     -63.675     999.584
  H      -77.803     -68.181    1004.776
  H      -80.789     -67.211     997.506
  H      -79.240     -70.239     999.977
  H      -77.267     -68.801    1000.365
  H      -76.617     -65.812     998.439
  H      -77.546     -65.902    1001.376
  H      -75.572     -64.507    1001.848
  H      -73.901     -66.079    1000.218
  H      -74.404     -68.068    1001.752
  H      -73.907     -66.566    1002.578
  P      -73.926     -63.070    1000.120
  C      -74.211     -62.707     997.576
  O      -73.643     -62.210     998.780
  O      -72.719     -63.779    1000.656
  O      -74.449     -61.976    1001.156
  H      -73.698     -61.652    1001.700
  H      -73.955     -62.056     996.766
  H      -75.275     -62.751     997.676
  H      -73.830     -63.687     997.380

 6  7  8  9  10  11  12  13  14  15  16  26  31  32  33  34  35 0
 6-311+G(2d,p)
 ****
 36  37 0
 6-311+G(2d,p)
 ****
 1  2  3  4  5  17  18  19  20  21  22  23  24  25 0
 3-21G
 ****
 27  28  29  30  38  39  40  41  42  43  44  45 0
 3-21G
 ****


