%nproc=1
%NoSave
%Mem=1900MB
#P OB98/GEN NMR

erre ene a

0 1
  C      136.376    -228.619    -181.195
  O      136.529    -229.949    -181.649
  H      137.313    -228.081    -181.360
  H      136.155    -228.620    -180.123
  H      135.576    -228.111    -181.741
  P      135.189    -230.819    -181.808
  C      135.736    -232.492    -179.900
  O      134.886    -231.455    -180.365
  C      134.922    -233.565    -179.185
  O      134.348    -233.037    -177.969
  C      133.759    -234.120    -180.002
  O      134.186    -235.141    -180.894
  C      132.886    -234.691    -178.898
  O      133.435    -235.947    -178.444
  C      133.031    -233.631    -177.797
  N      128.188    -232.442    -176.870
  C      128.838    -233.657    -176.765
  N      128.087    -234.706    -176.364
  N      130.106    -233.832    -177.034
  C      130.724    -232.700    -177.447
  C      130.189    -231.440    -177.597
  C      128.789    -231.259    -177.281
  O      128.170    -230.200    -177.349
  N      131.123    -230.541    -178.037
  C      132.219    -231.261    -178.175
  N      132.029    -232.579    -177.833
  O      135.683    -232.071    -182.680
  O      134.048    -230.116    -182.464
  H      132.869    -236.260    -177.715
  H      135.395    -231.944    -183.604
  H      127.207    -232.365    -176.661
  H      133.174    -230.879    -178.511
  H      132.997    -234.066    -176.791
  H      131.865    -234.893    -179.228
  H      127.102    -234.646    -176.164
  H      133.215    -233.323    -180.526
  H      128.544    -235.606    -176.278
  H      135.609    -234.371    -178.897
  H      136.469    -232.068    -179.205
  H      136.264    -232.930    -180.754
  P      133.621    -235.124    -182.395
  C      132.003    -237.095    -181.917
  O      132.140    -235.747    -182.343
  O      134.483    -236.268    -183.109
  O      133.747    -233.821    -183.108
  H      135.090    -235.868    -183.761
  H      130.969    -237.371    -181.933
  H      132.384    -237.195    -180.922
  H      132.553    -237.735    -182.575

 6  7  8  9  10  11  12  13  14  15  26  29  33  34 0
 6-311+G(2d,p)
 ****
 36  38  39  40  41 0
 6-311+G(2d,p)
 ****
 1  2  3  4  5  16  17  18  19  20  21  22  23  24  25 0
 3-21G
 ****
 27  28  30  31  32  35  37  42  43  44  45  46  47 0
 3-21G
 ****
 48  49 0
 3-21G
 ****


