%nproc=1
%NoSave
%Mem=1900MB
#P OB98/GEN NMR

erre ene a

0 1
  C     1362.387      59.263     -41.656
  O     1362.997      60.112     -42.614
  P     1363.378      61.591     -42.152
  C     1364.931      61.545     -44.246
  O     1364.101      62.306     -43.401
  C     1364.936      62.147     -45.653
  O     1365.164      63.566     -45.579
  C     1366.028      61.585     -46.559
  O     1365.689      60.320     -47.082
  C     1366.126      62.676     -47.634
  O     1365.114      62.497     -48.641
  C     1365.857      63.957     -46.804
  N     1367.087      64.706     -46.520
  C     1367.382      65.721     -47.426
  O     1366.692      65.971     -48.423
  N     1368.535      66.421     -47.165
  C     1369.416      66.178     -46.141
  O     1370.454      66.807     -46.012
  C     1369.041      65.071     -45.236
  C     1367.915      64.406     -45.476
  O     1364.583      61.382     -41.095
  O     1362.251      62.377     -41.549
  H     1364.978      63.384     -49.056
  H     1364.504      62.034     -40.384
  H     1368.760      67.188     -47.788
  H     1369.725      64.860     -44.425
  H     1367.627      63.569     -44.827
  H     1365.160      64.611     -47.349
  H     1367.089      62.667     -48.140
  H     1366.976      61.542     -46.002
  H     1363.951      61.992     -46.105
  H     1364.569      60.520     -44.282
  H     1365.956      61.522     -43.834
  P     1366.845      59.227     -47.193
  C     1364.954      57.416     -47.075
  O     1366.127      57.891     -47.708
  O     1367.147      58.958     -45.626
  O     1368.033      59.699     -47.976
  H     1366.351      59.044     -45.089
  H     1364.327      58.238     -46.730
  H     1365.246      56.790     -46.226
  H     1364.393      56.812     -47.783
  H     1362.188      58.310     -42.100
  H     1361.469      59.701     -41.325
  H     1363.044      59.138     -40.821

 3  4  5  6  7  8  9  10  11  12  13  23  28  29  30  31  32 0
 6-311+G(2d,p)
 ****
 33  34 0
 6-311+G(2d,p)
 ****
 1  2  14  15  16  17  18  19  20  21  22  24  25  26 0
 3-21G
 ****
 27  35  36  37  38  39  40  41  42  43  44  45 0
 3-21G
 ****


