%nproc=1
%NoSave
%Mem=1900MB
#P OB98/GEN NMR

erre ene a

0 1
  C     -318.014     476.597     780.806
  O     -317.534     476.140     779.561
  P     -317.047     474.623     779.378
  C     -316.674     473.108     777.329
  O     -317.400     474.212     777.871
  C     -317.606     472.215     776.511
  O     -318.489     471.450     777.384
  C     -318.551     472.972     775.589
  O     -317.975     473.682     774.513
  C     -319.560     471.893     775.247
  O     -319.076     471.035     774.208
  C     -319.659     471.121     776.588
  N     -320.902     471.420     777.304
  C     -322.044     470.794     776.816
  O     -322.047     470.020     775.855
  N     -323.211     471.099     777.468
  C     -323.352     471.987     778.498
  O     -324.433     472.247     779.003
  C     -322.111     472.634     778.949
  C     -320.960     472.327     778.344
  O     -317.542     473.670     780.418
  O     -315.452     474.755     779.331
  H     -318.888     471.600     773.430
  H     -315.115     475.310     778.601
  H     -324.059     470.660     777.120
  H     -322.187     473.335     779.772
  H     -320.031     472.791     778.661
  H     -319.622     470.041     776.405
  H     -320.510     472.315     774.896
  H     -319.078     473.723     776.187
  H     -316.992     471.495     775.963
  H     -316.252     472.521     778.159
  H     -315.846     473.479     776.717
  P     -318.778     474.742     773.622
  C     -318.316     477.142     772.757
  O     -318.043     476.163     773.737
  O     -320.273     474.720     773.741
  O     -318.362     474.286     772.137
  H     -319.110     474.479     771.537
  H     -317.703     478.028     772.975
  H     -319.376     477.443     772.792
  H     -318.059     476.768     771.758
  H     -318.288     477.628     780.726
  H     -317.248     476.488     781.545
  H     -318.870     476.022     781.091

 3  4  5  6  7  8  9  10  11  12  13  23  28  29  30  31  32 0
 6-311+G(2d,p)
 ****
 33  34 0
 6-311+G(2d,p)
 ****
 1  2  14  15  16  17  18  19  20  21  22  24  25  26  27 0
 3-21G
 ****
 35  36  37  38  39  40  41  42  43  44  45 0
 3-21G
 ****


