%nproc=1
%NoSave
%Mem=1900MB
#P OB98/GEN NMR

erre ene a

0 1
  C      286.305    -429.399     165.168
  O      285.628    -428.724     166.215
  P      285.339    -427.143     166.145
  C      282.813    -427.619     165.854
  O      283.972    -426.999     165.321
  C      281.672    -426.611     165.968
  O      282.054    -425.578     166.922
  C      281.309    -425.911     164.648
  O      279.892    -425.690     164.663
  C      282.053    -424.590     164.751
  O      281.506    -423.584     163.914
  C      281.933    -424.310     166.254
  N      282.951    -423.372     166.729
  C      282.559    -422.416     167.674
  O      281.397    -422.352     168.067
  N      283.508    -421.549     168.151
  C      284.714    -421.569     167.674
  N      285.629    -420.723     168.220
  C      285.138    -422.487     166.597
  C      284.217    -423.363     166.195
  O      286.467    -426.324     165.626
  O      284.879    -426.759     167.627
  H      280.550    -423.525     164.098
  H      285.642    -426.572     168.228
  H      286.144    -422.448     166.206
  H      284.445    -424.096     165.430
  H      280.938    -423.922     166.492
  H      283.100    -424.740     164.463
  H      281.575    -426.500     163.769
  H      280.794    -427.126     166.382
  H      285.348    -420.239     169.064
  H      283.052    -427.999     166.854
  H      286.625    -420.907     168.137
  H      282.524    -428.471     165.224
  P      279.084    -425.873     163.288
  C      277.836    -428.094     163.799
  O      278.850    -427.447     163.056
  O      280.220    -425.544     162.194
  O      277.906    -424.975     163.083
  H      279.793    -425.234     161.379
  H      277.817    -429.151     163.510
  H      276.861    -427.657     163.580
  H      278.054    -428.031     164.870
  H      286.393    -430.437     165.411
  H      287.281    -428.977     165.044
  H      285.752    -429.292     164.258

 3  4  5  6  7  8  9  10  11  12  13  23  27  28  29  30  32 0
 6-311+G(2d,p)
 ****
 34  35 0
 6-311+G(2d,p)
 ****
 1  2  14  15  16  17  18  19  20  21  22  24  25  26 0
 3-21G
 ****
 31  33  36  37  38  39  40  41  42  43  44  45  46 0
 3-21G
 ****


