%nproc=1
%NoSave
%Mem=1900MB
#P OB98/GEN NMR

erre ene a

0 1
  C      299.934      74.419      20.673
  O      299.868      74.531      19.248
  P      301.281      74.494      18.482
  C      300.301      72.744      16.838
  O      301.015      73.963      16.985
  C      299.832      72.567      15.395
  O      298.783      73.525      15.066
  C      300.955      72.730      14.346
  O      300.672      71.793      13.275
  C      300.744      74.157      13.882
  O      301.400      74.471      12.666
  C      299.214      74.201      13.858
  N      296.673      77.539      10.933
  C      297.092      76.271      10.699
  N      297.763      75.448      11.540
  C      298.017      76.059      12.716
  C      297.656      77.349      13.085
  C      296.956      78.116      12.127
  N      296.561      79.404      12.339
  N      298.113      77.624      14.371
  C      298.781      76.538      14.726
  N      298.676      75.537      13.791
  O      302.070      73.289      19.184
  O      302.041      75.792      18.559
  H      302.373      74.476      12.819
  H      302.694      73.629      19.856
  H      296.840      75.865       9.731
  H      299.350      76.429      15.640
  H      298.805      73.653      13.001
  H      301.134      74.850      14.646
  H      301.960      72.530      14.735
  H      299.383      71.563      15.303
  H      299.443      72.729      17.507
  H      296.070      79.877      11.593
  H      296.757      79.877      13.215
  H      300.954      71.908      17.161
  P      300.982      70.243      13.517
  C      299.472      69.587      11.539
  O      300.792      69.576      12.059
  O      299.620      69.788      14.248
  O      302.226      69.919      14.265
  H      298.831      70.084      13.755
  H      299.504      69.193      10.523
  H      299.091      70.615      11.502
  H      298.814      68.965      12.162
  H      298.945      74.455      21.080
  H      300.512      75.229      21.068
  H      300.395      73.490      20.937

 3  4  5  6  7  8  9  10  11  12  22  25  29  30  31  32 0
 6-311+G(2d,p)
 ****
 33  36  37 0
 6-311+G(2d,p)
 ****
 1  2  13  14  15  16  17  18  19  20  21  23  24  26 0
 3-21G
 ****
 27  28  34  35  38  39  40  41  42  43  44  45  46  47  48 0
 3-21G
 ****


