%nproc=1
%NoSave
%Mem=1900MB
#P OB98/GEN NMR

erre ene a

0 1
  C     -242.740     222.318      -7.769
  O     -242.896     221.660      -9.039
  P     -242.027     222.023     -10.338
  C     -240.701     220.725     -12.145
  O     -241.666     220.655     -11.097
  C     -240.288     219.311     -12.596
  O     -239.722     218.582     -11.474
  C     -241.425     218.422     -13.090
  O     -241.885     218.805     -14.375
  C     -240.760     217.052     -13.034
  O     -239.994     216.786     -14.220
  C     -239.821     217.171     -11.819
  N     -240.263     216.387     -10.678
  C     -239.852     215.049     -10.647
  O     -239.225     214.569     -11.590
  N     -240.178     214.289      -9.540
  C     -240.941     214.787      -8.612
  N     -241.213     213.996      -7.542
  C     -241.503     216.155      -8.676
  C     -241.118     216.891      -9.722
  O     -240.832     222.883     -10.052
  O     -243.041     222.759     -11.339
  H     -242.543     223.359     -11.924
  H     -239.620     215.884     -14.124
  H     -242.156     216.517      -7.903
  H     -241.473     217.906      -9.836
  H     -238.804     216.873     -12.098
  H     -241.502     216.244     -12.945
  H     -242.251     218.462     -12.368
  H     -239.516     219.414     -13.369
  H     -240.798     213.069      -7.525
  H     -239.818     221.252     -11.768
  H     -241.772     214.297      -6.757
  H     -241.121     221.295     -12.985
  P     -243.406     219.292     -14.484
  C     -244.361     221.068     -16.121
  O     -243.633     219.864     -15.962
  O     -243.457     220.596     -13.553
  O     -244.419     218.279     -14.048
  H     -244.298     220.624     -13.058
  H     -244.027     221.561     -17.041
  H     -244.220     221.750     -15.278
  H     -245.428     220.829     -16.221
  H     -243.429     221.902      -7.064
  H     -242.935     223.364      -7.883
  H     -241.740     222.178      -7.415

 3  4  5  6  7  8  9  10  11  12  13  24  27  28  29  30  32 0
 6-311+G(2d,p)
 ****
 34  35 0
 6-311+G(2d,p)
 ****
 1  2  14  15  16  17  18  19  20  21  22  23  25  26 0
 3-21G
 ****
 31  33  36  37  38  39  40  41  42  43  44  45  46 0
 3-21G
 ****


