%nproc=1
%NoSave
%Mem=1900MB
#P OB98/GEN NMR

erre ene a

0 1
  C       74.469    -248.090    -537.971
  O       73.164    -247.547    -537.883
  P       72.648    -246.651    -539.116
  C       70.595    -248.087    -539.807
  O       71.910    -247.650    -540.124
  C       70.367    -249.502    -540.345
  O       71.148    -250.458    -539.605
  C       68.923    -249.982    -540.241
  O       68.112    -249.490    -541.287
  C       69.115    -251.487    -540.369
  O       69.267    -251.842    -541.755
  C       70.426    -251.714    -539.610
  N       70.340    -255.727    -536.513
  C       70.797    -255.617    -537.817
  N       71.237    -256.765    -538.395
  N       70.821    -254.503    -538.487
  C       70.341    -253.443    -537.792
  C       69.862    -253.423    -536.496
  C       69.831    -254.672    -535.766
  O       69.390    -254.839    -534.635
  N       69.470    -252.164    -536.130
  C       69.716    -251.416    -537.190
  N       70.198    -252.159    -538.244
  O       74.000    -246.275    -539.890
  O       71.873    -245.438    -538.719
  H       68.414    -251.644    -542.194
  H       73.843    -245.518    -540.487
  H       70.337    -256.613    -536.040
  H       69.537    -250.349    -537.254
  H       71.063    -252.457    -540.099
  H       68.259    -252.054    -539.990
  H       71.184    -257.664    -537.945
  H       68.501    -249.753    -539.255
  H       71.520    -256.725    -539.366
  H       70.703    -249.523    -541.393
  H       69.868    -247.403    -540.256
  H       70.465    -248.072    -538.722
  P       67.005    -248.394    -540.893
  C       67.490    -246.944    -542.994
  O       67.492    -247.029    -541.577
  O       67.277    -248.153    -539.332
  O       65.596    -248.808    -541.166
  H       66.456    -247.852    -538.885
  H       67.588    -245.891    -543.281
  H       66.560    -247.335    -543.413
  H       68.340    -247.499    -543.405
  H       74.679    -248.659    -537.089
  H       75.180    -247.296    -538.061
  H       74.534    -248.726    -538.829

 3  4  5  6  7  8  9  10  11  12  23  26  30  31 0
 6-311+G(2d,p)
 ****
 33  35  36  37  38 0
 6-311+G(2d,p)
 ****
 1  2  13  14  15  16  17  18  19  20  21  22  24  25 0
 3-21G
 ****
 27  28  29  32  34  39  40  41  42  43  44  45  46  47  48  49 0
 3-21G
 ****


