%nproc=1
%NoSave
%Mem=1900MB
#P OB98/GEN NMR

erre ene a

0 1
  C     -138.548     724.229    -348.511
  O     -138.117     725.081    -347.483
  H     -139.000     723.331    -348.073
  H     -137.689     723.918    -349.121
  H     -139.285     724.724    -349.155
  P     -137.784     726.602    -347.871
  C     -140.051     727.458    -346.933
  O     -139.193     727.343    -348.065
  C     -141.366     728.137    -347.317
  O     -142.025     727.311    -348.331
  C     -142.356     728.329    -346.146
  O     -143.041     729.561    -346.330
  C     -143.342     727.187    -346.368
  O     -144.604     727.465    -345.746
  C     -143.386     727.139    -347.892
  N     -146.365     725.130    -351.417
  C     -145.815     726.399    -351.318
  N     -146.164     727.295    -352.261
  N     -145.011     726.752    -350.356
  C     -144.744     725.763    -349.480
  C     -145.218     724.479    -349.456
  C     -146.127     724.080    -350.518
  O     -146.664     723.001    -350.647
  N     -144.745     723.786    -348.370
  C     -143.993     724.661    -347.713
  N     -143.957     725.889    -348.349
  O     -137.218     726.463    -349.367
  O     -136.808     727.299    -346.979
  H     -145.196     726.704    -345.914
  H     -136.239     726.415    -349.350
  H     -147.008     724.909    -352.165
  H     -143.478     724.487    -346.770
  H     -144.001     727.940    -348.321
  H     -142.937     726.259    -345.945
  H     -146.754     727.080    -353.054
  H     -141.867     728.310    -345.165
  H     -145.732     728.216    -352.230
  H     -141.140     729.092    -347.797
  H     -139.547     728.064    -346.163
  H     -140.240     726.461    -346.523
  P     -142.355     730.907    -345.743
  C     -141.359     731.682    -348.036
  O     -141.108     731.282    -346.694
  O     -141.667     730.399    -344.393
  O     -143.316     732.019    -345.483
  H     -141.678     731.096    -343.735
  H     -140.431     731.893    -348.525
  H     -141.971     732.560    -348.038
  H     -141.864     730.894    -348.555

 6  7  8  9  10  11  12  13  14  15  26  29  33  34 0
 6-311+G(2d,p)
 ****
 36  38  39  40  41 0
 6-311+G(2d,p)
 ****
 1  2  3  4  5  16  17  18  19  20  21  22  23  24  25 0
 3-21G
 ****
 27  28  30  31  32  35  37  42  43  44  45  46  47 0
 3-21G
 ****
 48  49 0
 3-21G
 ****


