%nproc=1
%NoSave
%Mem=1900MB
#P OB98/GEN NMR

erre ene a

0 1
  C     -760.795     278.123     386.072
  O     -761.700     278.502     387.096
  P     -762.440     277.337     387.918
  C     -764.457     275.772     387.463
  O     -763.426     276.570     386.904
  C     -765.518     275.445     386.403
  O     -766.341     276.618     386.170
  C     -764.931     275.024     385.059
  O     -765.800     274.053     384.440
  C     -765.010     276.289     384.220
  O     -765.016     275.998     382.829
  C     -766.299     276.903     384.751
  N     -767.480     280.452     381.344
  C     -767.780     279.107     381.345
  N     -768.397     278.622     380.242
  N     -767.495     278.296     382.341
  C     -766.866     278.912     383.371
  C     -766.529     280.247     383.486
  C     -766.836     281.122     382.378
  O     -766.574     282.325     382.306
  N     -765.939     280.506     384.695
  C     -765.866     279.324     385.295
  N     -766.391     278.329     384.508
  O     -763.446     278.160     388.862
  O     -761.536     276.469     388.724
  H     -765.788     275.416     382.655
  H     -763.107     278.158     389.779
  H     -767.701     281.025     380.548
  H     -765.436     279.145     386.266
  H     -767.185     276.429     384.298
  H     -764.143     276.926     384.432
  H     -768.584     279.173     379.422
  H     -763.921     274.615     385.106
  H     -768.589     277.632     380.199
  H     -766.179     274.670     386.804
  H     -764.928     276.315     388.283
  H     -764.035     274.843     387.860
  P     -765.074     272.844     383.674
  C     -763.666     272.713     381.485
  O     -764.188     273.514     382.526
  O     -766.278     272.142     382.880
  O     -764.354     271.890     384.576
  H     -766.067     271.197     382.710
  H     -764.105     273.028     380.538
  H     -763.882     271.649     381.639
  H     -762.588     272.844     381.443
  H     -760.383     279.000     385.617
  H     -761.313     277.548     385.333
  H     -760.006     277.536     386.493

 3  4  5  6  7  8  9  10  11  12  23  26  30  31 0
 6-311+G(2d,p)
 ****
 33  35  36  37  38 0
 6-311+G(2d,p)
 ****
 1  2  13  14  15  16  17  18  19  20  21  22  24  25 0
 3-21G
 ****
 27  28  29  32  34  39  40  41  42  43  44  45  46  47  48  49 0
 3-21G
 ****


