%nproc=1
%NoSave
%Mem=1900MB
#P OB98/GEN NMR

erre ene a

0 1
  C      232.481    -179.815    -114.417
  O      232.514    -178.803    -115.404
  H      231.495    -179.813    -113.946
  H      233.236    -179.626    -113.647
  H      232.652    -180.796    -114.871
  P      233.885    -178.545    -116.191
  C      236.127    -177.382    -115.621
  O      234.912    -177.935    -115.121
  C      237.067    -177.025    -114.469
  O      237.671    -178.217    -113.927
  C      238.228    -176.118    -114.873
  O      237.782    -174.787    -115.054
  C      239.172    -176.339    -113.701
  O      238.754    -175.582    -112.555
  C      238.992    -177.855    -113.449
  N      240.016    -178.677    -114.087
  C      241.334    -178.454    -113.665
  O      241.576    -177.593    -112.817
  N      242.337    -179.200    -114.234
  C      242.051    -180.116    -115.107
  N      243.094    -180.826    -115.632
  C      240.675    -180.408    -115.552
  C      239.718    -179.653    -115.016
  O      233.781    -177.764    -117.463
  O      234.465    -180.018    -116.451
  H      237.789    -175.713    -112.480
  H      234.194    -180.343    -117.327
  H      240.480    -181.187    -116.275
  H      238.676    -179.800    -115.284
  H      239.003    -178.069    -112.370
  H      240.193    -176.035    -113.930
  H      238.710    -176.497    -115.783
  H      236.467    -176.566    -113.673
  H      244.019    -180.601    -115.279
  H      235.864    -176.482    -116.185
  H      242.976    -181.659    -116.186
  H      236.619    -178.086    -116.303
  P      238.161    -173.947    -116.363
  C      240.375    -173.381    -117.551
  O      239.763    -173.799    -116.339
  O      237.415    -172.665    -116.534
  O      237.930    -174.983    -117.560
  H      236.964    -175.073    -117.757
  H      241.434    -173.319    -117.413
  H      239.995    -172.420    -117.830
  H      240.157    -174.089    -118.323

 6  7  8  9  10  11  12  13  14  15  16  26  30  31  32  33  35 0
 6-311+G(2d,p)
 ****
 37  38 0
 6-311+G(2d,p)
 ****
 1  2  3  4  5  17  18  19  20  21  22  23  24  25 0
 3-21G
 ****
 27  28  29  34  36  39  40  41  42  43  44  45  46 0
 3-21G
 ****


