%nproc=1
%NoSave
%Mem=1900MB
#P OB98/GEN NMR

erre ene a

0 1
  C      -81.948     113.577     217.127
  O      -81.351     114.841     216.911
  H      -83.036     113.653     217.050
  H      -81.589     112.880     216.362
  H      -81.673     113.192     218.116
  P      -81.778     116.020     217.912
  C      -79.747     115.612     219.490
  O      -81.159     115.606     219.336
  C      -79.401     115.547     220.972
  O      -77.972     115.398     221.143
  C      -79.781     116.801     221.748
  O      -81.149     116.815     222.124
  C      -78.876     116.671     222.961
  O      -79.415     115.689     223.868
  C      -77.579     116.146     222.324
  N      -73.847     119.268     223.916
  C      -74.522     118.282     224.542
  N      -75.487     117.480     224.038
  C      -75.728     117.774     222.752
  C      -75.115     118.752     221.983
  C      -74.129     119.529     222.620
  N      -73.463     120.558     221.996
  N      -75.645     118.769     220.707
  C      -76.549     117.811     220.706
  N      -76.659     117.203     221.927
  O      -83.348     115.793     218.123
  O      -81.441     117.406     217.470
  H      -78.701     115.446     224.483
  H      -83.754     116.581     218.532
  H      -74.254     118.111     225.580
  H      -77.152     117.527     219.853
  H      -77.027     115.465     222.983
  H      -78.776     117.604     223.518
  H      -79.513     117.712     221.198
  H      -79.881     114.656     221.398
  H      -79.345     116.536     219.056
  H      -72.886     121.149     222.575
  H      -73.770     120.854     221.082
  H      -79.321     114.753     218.961
  P      -81.778     118.226     222.575
  C      -83.171     118.567     220.410
  O      -82.100     119.028     221.223
  O      -80.519     119.005     223.175
  O      -82.902     118.119     223.553
  H      -80.790     119.602     223.900
  H      -83.263     119.198     219.551
  H      -84.082     118.593     220.971
  H      -82.974     117.563     220.096

 6  7  8  9  10  11  12  13  14  15  25  28  32  33  34  35 0
 6-311+G(2d,p)
 ****
 36  39  40 0
 6-311+G(2d,p)
 ****
 1  2  3  4  5  16  17  18  19  20  21  22  23  24 0
 3-21G
 ****
 26  27  29  30  31  37  38  41  42  43  44  45  46  47 0
 3-21G
 ****
 48 0
 3-21G
 ****


