%nproc=1
%NoSave
%Mem=1900MB
#P OB98/GEN NMR

erre ene a

0 1
  C      327.908    -252.187    -480.039
  O      328.478    -253.390    -479.522
  P      328.900    -253.402    -477.971
  C      331.493    -253.095    -478.201
  O      330.236    -252.509    -477.874
  C      332.620    -252.414    -477.406
  O      333.822    -253.251    -477.458
  C      332.999    -251.011    -477.901
  O      333.316    -250.238    -476.739
  C      334.254    -251.269    -478.723
  O      335.046    -250.096    -478.862
  C      334.893    -252.399    -477.910
  N      335.893    -253.150    -478.673
  C      337.015    -252.455    -479.115
  O      337.157    -251.242    -478.955
  N      337.949    -253.193    -479.791
  C      337.840    -254.515    -480.130
  O      338.709    -255.126    -480.729
  C      336.579    -255.170    -479.736
  C      335.680    -254.467    -479.036
  O      329.412    -254.908    -477.796
  O      327.784    -252.995    -477.059
  H      329.880    -255.252    -478.572
  H      335.912    -250.339    -479.251
  H      338.791    -252.710    -480.087
  H      336.433    -256.204    -480.031
  H      334.732    -254.916    -478.752
  H      335.390    -251.992    -477.018
  H      333.974    -251.620    -479.721
  H      332.199    -250.534    -478.460
  H      332.307    -252.371    -476.353
  H      331.693    -252.967    -479.266
  H      331.452    -254.173    -477.998
  P      332.214    -249.193    -476.191
  C      333.585    -247.005    -476.677
  O      332.452    -247.812    -476.965
  O      332.803    -248.896    -474.732
  O      330.810    -249.713    -476.160
  H      333.763    -248.715    -474.739
  H      333.686    -246.253    -477.456
  H      334.495    -247.608    -476.631
  H      333.434    -246.501    -475.712
  H      327.676    -252.319    -481.075
  H      328.608    -251.385    -479.929
  H      327.013    -251.956    -479.500

 3  4  5  6  7  8  9  10  11  12  13  24  28  29  30  31  32 0
 6-311+G(2d,p)
 ****
 33  34 0
 6-311+G(2d,p)
 ****
 1  2  14  15  16  17  18  19  20  21  22  23  25  26  27 0
 3-21G
 ****
 35  36  37  38  39  40  41  42  43  44  45 0
 3-21G
 ****


