%nproc=1
%NoSave
%Mem=1900MB
#P OB98/GEN NMR

erre ene a

0 1
  C     -167.742      27.122    -441.932
  O     -168.703      27.514    -440.953
  P     -168.198      28.236    -439.611
  C     -170.276      29.613    -438.990
  O     -169.464      28.498    -438.658
  C     -171.356      29.264    -440.023
  O     -172.089      28.075    -439.626
  C     -172.392      30.376    -440.256
  O     -172.741      30.337    -441.643
  C     -173.552      29.925    -439.393
  O     -174.772      30.554    -439.753
  C     -173.491      28.411    -439.620
  N     -174.219      27.664    -438.607
  C     -175.568      27.402    -438.855
  O     -176.116      27.884    -439.848
  N     -176.262      26.624    -437.957
  C     -175.697      26.279    -436.843
  N     -176.408      25.495    -435.990
  C     -174.332      26.694    -436.468
  C     -173.652      27.355    -437.397
  O     -167.309      29.418    -439.816
  O     -167.421      27.058    -438.847
  H     -174.909      30.455    -440.720
  H     -166.662      27.443    -438.364
  H     -173.934      26.451    -435.491
  H     -172.641      27.697    -437.221
  H     -173.893      28.148    -440.606
  H     -173.345      30.165    -438.343
  H     -172.017      31.375    -440.011
  H     -170.852      29.033    -440.972
  H     -177.353      25.236    -436.250
  H     -169.644      30.412    -439.389
  H     -176.022      25.137    -435.125
  H     -170.725      30.014    -438.073
  P     -172.334      31.572    -442.586
  C     -172.135      30.140    -444.744
  O     -172.768      31.215    -444.084
  O     -170.735      31.410    -442.657
  O     -172.688      32.931    -442.078
  H     -170.339      32.282    -442.851
  H     -172.732      29.864    -445.619
  H     -172.053      29.267    -444.094
  H     -171.140      30.448    -445.082
  H     -168.242      26.659    -442.757
  H     -167.053      26.428    -441.498
  H     -167.211      27.985    -442.276

 3  4  5  6  7  8  9  10  11  12  13  23  27  28  29  30  32 0
 6-311+G(2d,p)
 ****
 34  35 0
 6-311+G(2d,p)
 ****
 1  2  14  15  16  17  18  19  20  21  22  24  25  26 0
 3-21G
 ****
 31  33  36  37  38  39  40  41  42  43  44  45  46 0
 3-21G
 ****


