%nproc=1
%NoSave
%Mem=1900MB
#P OB98/GEN NMR

erre ene a

0 1
  C      -14.810     459.258    -185.630
  O      -13.880     458.196    -185.674
  P      -12.926     457.870    -184.426
  C      -13.901     455.655    -183.556
  O      -13.838     457.062    -183.378
  C      -14.230     454.942    -182.248
  O      -13.252     455.306    -181.233
  C      -15.619     455.252    -181.677
  O      -16.070     454.058    -181.031
  C      -15.318     456.333    -180.653
  O      -16.359     456.481    -179.694
  C      -13.977     455.836    -180.102
  N      -13.240     456.899    -179.424
  C      -12.964     456.704    -178.070
  O      -13.409     455.715    -177.483
  N      -12.250     457.662    -177.393
  C      -11.922     458.764    -177.997
  N      -11.209     459.673    -177.283
  C      -12.305     459.062    -179.393
  C      -12.944     458.090    -180.046
  O      -12.203     459.041    -183.857
  O      -11.954     456.728    -184.987
  H      -16.341     455.707    -179.095
  H      -11.255     457.125    -185.568
  H      -12.062     460.015    -179.837
  H      -13.260     458.213    -181.069
  H      -14.127     455.012    -179.397
  H      -15.196     457.295    -181.158
  H      -16.342     455.581    -182.431
  H      -14.136     453.860    -182.412
  H      -10.957     459.421    -176.338
  H      -12.926     455.310    -183.909
  H      -10.840     460.522    -177.681
  H      -14.645     455.408    -184.330
  P      -17.627     453.655    -181.014
  C      -17.458     451.715    -182.664
  O      -17.960     453.019    -182.436
  O      -18.553     454.747    -180.576
  O      -17.695     452.395    -180.021
  H      -18.621     452.247    -179.752
  H      -17.974     451.281    -183.528
  H      -17.621     451.072    -181.797
  H      -16.387     451.765    -182.884
  H      -15.343     459.304    -186.557
  H      -14.291     460.180    -185.470
  H      -15.501     459.094    -184.829

 3  4  5  6  7  8  9  10  11  12  13  23  27  28  29  30  32 0
 6-311+G(2d,p)
 ****
 34  35 0
 6-311+G(2d,p)
 ****
 1  2  14  15  16  17  18  19  20  21  22  24  25  26 0
 3-21G
 ****
 31  33  36  37  38  39  40  41  42  43  44  45  46 0
 3-21G
 ****


