%nproc=1
%NoSave
%Mem=1900MB
#P OB98/GEN NMR

erre ene a

0 1
  C     -394.412    -768.309     626.755
  O     -395.328    -769.338     626.363
  P     -395.429    -769.688     624.805
  C     -397.322    -768.010     624.218
  O     -395.977    -768.393     624.016
  C     -398.054    -767.773     622.889
  O     -398.356    -769.047     622.249
  C     -399.391    -767.032     623.039
  O     -399.618    -766.281     621.847
  C     -400.395    -768.177     623.102
  O     -401.719    -767.717     622.812
  C     -399.787    -769.132     622.075
  N     -402.449    -772.873     619.984
  C     -402.221    -771.579     619.543
  N     -402.764    -771.243     618.349
  N     -401.538    -770.694     620.210
  C     -401.037    -771.188     621.378
  C     -401.185    -772.430     621.922
  C     -401.976    -773.392     621.190
  O     -402.231    -774.539     621.533
  N     -400.548    -772.538     623.131
  C     -399.997    -771.354     623.306
  N     -400.236    -770.509     622.271
  O     -396.666    -770.716     624.746
  O     -394.190    -770.311     624.237
  H     -401.964    -767.088     623.526
  H     -396.350    -771.613     624.573
  H     -403.006    -773.504     619.439
  H     -399.431    -771.045     624.186
  H     -400.024    -768.847     621.052
  H     -400.396    -768.616     624.110
  H     -403.261    -771.894     617.756
  H     -399.453    -766.367     623.902
  H     -402.573    -770.317     617.987
  H     -397.378    -767.226     622.217
  H     -397.362    -767.077     624.815
  H     -397.824    -768.763     624.828
  P     -399.576    -764.695     621.974
  C     -401.922    -764.004     621.092
  O     -401.083    -764.205     622.225
  O     -399.263    -764.202     620.461
  O     -398.565    -764.173     622.930
  H     -398.832    -763.331     620.471
  H     -402.622    -764.863     621.008
  H     -401.343    -763.907     620.185
  H     -402.502    -763.088     621.266
  H     -394.450    -768.183     627.817
  H     -394.682    -767.390     626.277
  H     -393.420    -768.585     626.464

 3  4  5  6  7  8  9  10  11  12  23  26  30  31 0
 6-311+G(2d,p)
 ****
 33  35  36  37  38 0
 6-311+G(2d,p)
 ****
 1  2  13  14  15  16  17  18  19  20  21  22  24  25 0
 3-21G
 ****
 27  28  29  32  34  39  40  41  42  43  44  45  46  47  48  49 0
 3-21G
 ****


