%nproc=1
%NoSave
%Mem=1900MB
#P OB98/GEN NMR

erre ene a

0 1
  C       72.997     -33.183    -139.245
  O       73.610     -33.972    -138.245
  H       72.290     -32.500    -138.768
  H       72.451     -33.824    -139.940
  H       73.746     -32.599    -139.784
  P       74.756     -34.987    -138.724
  C       76.724     -33.350    -138.310
  O       76.093     -34.566    -137.935
  C       78.225     -33.559    -138.501
  O       78.799     -32.350    -139.085
  C       78.994     -33.849    -137.202
  O       80.054     -34.763    -137.510
  C       79.613     -32.502    -136.867
  O       80.743     -32.618    -136.006
  C       79.934     -31.995    -138.272
  N       82.280     -28.256    -135.858
  C       82.272     -29.616    -135.614
  N       83.002     -30.050    -134.564
  N       81.607     -30.476    -136.337
  C       80.947     -29.908    -137.375
  C       80.871     -28.580    -137.721
  C       81.592     -27.633    -136.896
  O       81.622     -26.417    -137.051
  N       80.076     -28.403    -138.827
  C       79.675     -29.620    -139.147
  N       80.178     -30.566    -138.295
  O       75.038     -34.512    -140.226
  O       74.401     -36.434    -138.652
  H       81.317     -33.330    -136.357
  H       74.501     -35.033    -140.852
  H       82.799     -27.636    -135.263
  H       79.025     -29.869    -139.974
  H       80.824     -32.477    -138.695
  H       78.874     -31.858    -136.376
  H       83.577     -29.451    -133.992
  H       78.377     -34.253    -136.394
  H       83.043     -31.048    -134.395
  H       78.376     -34.362    -139.232
  H       76.563     -32.609    -137.521
  H       76.277     -32.983    -139.240
  P       79.964     -36.248    -136.916
  C       78.798     -37.366    -138.954
  O       79.960     -37.276    -138.145
  O       78.454     -36.328    -136.386
  O       80.945     -36.536    -135.829
  H       78.395     -36.963    -135.649
  H       78.955     -38.091    -139.725
  H       78.597     -36.413    -139.397
  H       77.965     -37.661    -138.351

 6  7  8  9  10  11  12  13  14  15  26  29  33  34 0
 6-311+G(2d,p)
 ****
 36  38  39  40  41 0
 6-311+G(2d,p)
 ****
 1  2  3  4  5  16  17  18  19  20  21  22  23  24  25 0
 3-21G
 ****
 27  28  30  31  32  35  37  42  43  44  45  46  47 0
 3-21G
 ****
 48  49 0
 3-21G
 ****


