%nproc=1
%NoSave
%Mem=1900MB
#P OB98/GEN NMR

erre ene a

0 1
  C        0.578       6.631       8.977
  O        1.325       6.079       7.901
  P        2.862       6.526       7.756
  C        2.276       7.669       5.499
  O        2.848       7.809       6.794
  C        1.478       8.914       5.128
  O        0.507       9.207       6.152
  C        2.311      10.178       4.978
  O        2.934      10.264       3.708
  C        1.240      11.247       5.116
  O        0.524      11.384       3.875
  C        0.324      10.648       6.190
  N       -0.726      14.285       9.625
  C       -1.123      14.113       8.347
  N       -0.791      13.124       7.493
  C        0.076      12.272       8.066
  C        0.600      12.342       9.347
  C        0.157      13.402      10.153
  N        0.543      13.561      11.465
  N        1.462      11.291       9.576
  C        1.450      10.593       8.461
  N        0.621      11.139       7.522
  O        3.485       5.377       6.831
  O        3.599       6.674       9.043
  H        0.345      10.481       3.550
  H        4.450       5.327       6.967
  H       -1.808      14.864       7.963
  H        2.016       9.686       8.293
  H       -0.734      10.845       5.993
  H        1.649      12.232       5.359
  H        3.035      10.277       5.797
  H        0.933       8.701       4.199
  H        1.608       6.802       5.496
  H        0.044      14.232      12.025
  H        1.036      12.796      11.911
  H        3.076       7.497       4.772
  P        4.534      10.128       3.676
  C        4.612      12.334       2.307
  O        5.080      11.614       3.430
  O        4.806       9.379       2.289
  O        5.108       9.394       4.841
  H        5.650       8.891       2.325
  H        4.827      13.396       2.456
  H        3.532      12.212       2.180
  H        5.130      11.994       1.406
  H       -0.421       6.248       8.951
  H        0.554       7.697       8.885
  H        1.038       6.363       9.905

 3  4  5  6  7  8  9  10  11  12  22  25  29  30  31  32 0
 6-311+G(2d,p)
 ****
 33  36  37 0
 6-311+G(2d,p)
 ****
 1  2  13  14  15  16  17  18  19  20  21  23  24  26 0
 3-21G
 ****
 27  28  34  35  38  39  40  41  42  43  44  45  46  47  48 0
 3-21G
 ****


