%nproc=1
%NoSave
%Mem=1900MB
#P OB98/GEN NMR

erre ene a

0 1
  C      -36.077    -300.366     -47.518
  O      -35.010    -299.441     -47.538
  H      -36.398    -300.601     -48.536
  H      -35.737    -301.284     -47.033
  H      -36.917    -299.956     -46.948
  P      -35.279    -298.059     -48.307
  C      -34.510    -296.879     -46.133
  O      -34.416    -296.940     -47.548
  C      -33.399    -296.002     -45.569
  O      -33.417    -294.706     -46.200
  C      -33.503    -295.723     -44.075
  O      -33.041    -296.817     -43.295
  C      -32.582    -294.518     -43.949
  O      -31.212    -294.958     -43.904
  C      -32.847    -293.760     -45.259
  N      -33.256    -288.750     -44.207
  C      -32.185    -289.574     -44.273
  N      -32.152    -290.893     -44.546
  C      -33.387    -291.362     -44.784
  C      -34.571    -290.645     -44.755
  C      -34.478    -289.279     -44.443
  N      -35.578    -288.453     -44.363
  N      -35.640    -291.457     -45.066
  C      -35.115    -292.645     -45.280
  N      -33.755    -292.640     -45.115
  O      -36.788    -297.696     -47.906
  O      -35.106    -298.108     -49.789
  H      -31.159    -295.634     -43.201
  H      -37.224    -297.270     -48.668
  H      -31.222    -289.107     -44.083
  H      -35.674    -293.529     -45.559
  H      -31.917    -293.390     -45.704
  H      -32.766    -293.929     -43.048
  H      -34.522    -295.431     -43.795
  H      -32.439    -296.478     -45.809
  H      -34.415    -297.889     -45.718
  H      -35.434    -287.457     -44.333
  H      -36.491    -288.857     -44.549
  H      -35.491    -296.475     -45.861
  P      -34.063    -297.450     -42.229
  C      -32.930    -299.781     -42.121
  O      -33.224    -298.567     -41.440
  O      -35.054    -298.311     -43.144
  O      -34.798    -296.460     -41.392
  H      -35.916    -298.411     -42.696
  H      -32.370    -300.425     -41.476
  H      -32.356    -299.568     -42.998
  H      -33.843    -300.263     -42.401

 6  7  8  9  10  11  12  13  14  15  25  28  32  33  34  35 0
 6-311+G(2d,p)
 ****
 36  39  40 0
 6-311+G(2d,p)
 ****
 1  2  3  4  5  16  17  18  19  20  21  22  23  24 0
 3-21G
 ****
 26  27  29  30  31  37  38  41  42  43  44  45  46  47  48 0
 3-21G
 ****


