%nproc=1
%NoSave
%Mem=1900MB
#P OB98/GEN NMR

erre ene a

0 1
  C       64.962    -514.935     308.368
  O       65.194    -513.549     308.576
  P       66.679    -512.995     308.321
  C       67.602    -510.568     307.890
  O       66.505    -511.466     307.871
  C       67.181    -509.194     307.342
  O       66.744    -509.329     305.975
  C       66.012    -508.560     308.084
  O       66.411    -507.990     309.320
  C       65.522    -507.547     307.048
  O       66.352    -506.372     307.069
  C       65.739    -508.324     305.730
  N       64.517    -508.917     305.199
  C       63.503    -508.029     304.835
  O       63.617    -506.806     304.947
  N       62.352    -508.599     304.360
  C       62.085    -509.936     304.276
  O       61.018    -510.387     303.880
  C       63.177    -510.823     304.703
  C       64.320    -510.285     305.140
  O       67.058    -513.772     306.975
  O       67.601    -513.229     309.473
  H       66.270    -513.995     306.452
  H       66.228    -505.969     307.954
  H       61.611    -507.970     304.073
  H       63.003    -511.891     304.662
  H       65.133    -510.926     305.471
  H       66.161    -507.653     304.959
  H       64.491    -507.230     307.215
  H       65.227    -509.307     308.261
  H       68.055    -508.538     307.358
  H       68.411    -510.974     307.272
  H       67.967    -510.469     308.918
  P       65.269    -507.827     310.441
  C       65.391    -507.164     312.967
  O       66.034    -507.732     311.844
  O       64.623    -509.290     310.441
  O       64.307    -506.723     310.155
  H       65.288    -509.997     310.386
  H       65.899    -507.507     313.874
  H       64.341    -507.460     313.021
  H       65.459    -506.077     312.914
  H       63.936    -515.160     308.574
  H       65.590    -515.504     309.021
  H       65.185    -515.185     307.352

 3  4  5  6  7  8  9  10  11  12  13  24  28  29  30  31  32 0
 6-311+G(2d,p)
 ****
 33  34 0
 6-311+G(2d,p)
 ****
 1  2  14  15  16  17  18  19  20  21  22  23  25  26  27 0
 3-21G
 ****
 35  36  37  38  39  40  41  42  43  44  45 0
 3-21G
 ****


