%nproc=1
%NoSave
%Mem=1900MB
#P OB98/GEN NMR

erre ene a

0 1
  C     -171.780     114.794     355.564
  O     -172.957     115.220     356.214
  H     -171.941     113.782     355.183
  H     -170.944     114.773     356.265
  H     -171.547     115.454     354.719
  P     -172.997     116.669     356.911
  C     -175.078     118.131     357.263
  O     -174.505     116.844     357.448
  C     -176.530     118.159     357.739
  O     -177.386     117.572     356.719
  C     -176.772     117.387     359.047
  O     -177.555     118.173     359.946
  C     -177.574     116.169     358.603
  O     -178.365     115.611     359.641
  C     -178.351     116.759     357.415
  N     -178.927     115.722     356.565
  C     -179.945     114.947     357.140
  O     -180.306     115.161     358.300
  N     -180.475     113.921     356.410
  C     -180.009     113.652     355.225
  N     -180.562     112.601     354.572
  C     -178.917     114.433     354.597
  C     -178.432     115.443     355.308
  O     -172.498     117.784     356.049
  O     -172.153     116.498     358.259
  H     -178.958     116.306     359.987
  H     -171.835     117.382     358.555
  H     -178.560     114.164     353.610
  H     -177.633     116.068     354.931
  H     -179.164     117.416     357.761
  H     -176.885     115.396     358.240
  H     -175.845     117.090     359.543
  H     -176.846     119.208     357.833
  H     -181.301     112.093     355.040
  H     -175.016     118.389     356.194
  H     -180.266     112.289     353.659
  H     -174.494     118.857     357.842
  P     -176.780     119.350     360.717
  C     -177.416     121.569     361.908
  O     -177.858     120.468     361.130
  O     -175.917     120.048     359.570
  O     -175.915     118.860     361.830
  H     -174.970     119.857     359.700
  H     -178.241     122.223     362.102
  H     -176.657     122.101     361.374
  H     -177.017     121.213     362.835

 6  7  8  9  10  11  12  13  14  15  16  26  30  31  32  33  35 0
 6-311+G(2d,p)
 ****
 37  38 0
 6-311+G(2d,p)
 ****
 1  2  3  4  5  17  18  19  20  21  22  23  24  25 0
 3-21G
 ****
 27  28  29  34  36  39  40  41  42  43  44  45  46 0
 3-21G
 ****


