%nproc=1
%NoSave
%Mem=1900MB
#P OB98/GEN NMR

erre ene a

0 1
  C       82.183     -34.441     167.893
  O       80.884     -33.914     168.069
  H       82.358     -34.592     166.823
  H       82.268     -35.407     168.398
  H       82.940     -33.752     168.276
  P       80.437     -33.428     169.529
  C       78.938     -31.554     170.490
  O       79.425     -32.203     169.322
  C       78.139     -30.296     170.116
  O       78.951     -29.481     169.213
  C       76.803     -30.584     169.395
  O       75.902     -29.517     169.741
  C       77.236     -30.495     167.942
  O       76.150     -30.454     167.056
  C       78.143     -29.263     168.026
  N       78.999     -29.031     166.867
  C       78.753     -27.890     166.107
  O       77.876     -27.060     166.342
  N       79.573     -27.717     165.017
  C       80.595     -28.543     164.639
  O       81.315     -28.317     163.669
  C       80.796     -29.731     165.477
  C       80.004     -29.915     166.535
  O       81.546     -33.173     170.497
  O       79.470     -34.603     170.038
  H       79.954     -35.177     170.663
  H       76.482     -30.533     166.135
  H       79.416     -26.895     164.457
  H       81.591     -30.417     165.199
  H       80.138     -30.782     167.181
  H       77.541     -28.368     168.213
  H       77.814     -31.387     167.672
  H       76.358     -31.544     169.680
  H       77.977     -29.699     171.027
  H       79.801     -31.272     171.107
  H       78.308     -32.245     171.049
  P       74.894     -29.581     170.986
  C       73.242     -27.947     172.128
  O       73.965     -28.272     170.944
  O       75.565     -29.796     172.307
  O       73.881     -30.777     170.653
  H       73.532     -31.149     171.481
  H       72.668     -27.059     171.963
  H       73.929     -27.783     172.932
  H       72.586     -28.754     172.378

 6  7  8  9  10  11  12  13  14  15  16  27  31  32  33  34  35 0
 6-311+G(2d,p)
 ****
 36  37 0
 6-311+G(2d,p)
 ****
 1  2  3  4  5  17  18  19  20  21  22  23  24  25 0
 3-21G
 ****
 26  28  29  30  38  39  40  41  42  43  44  45 0
 3-21G
 ****


