%nproc=1
%NoSave
%Mem=1900MB
#P OB98/GEN NMR

erre ene a

0 1
  C      649.594     355.886     897.877
  O      650.605     355.001     897.446
  H      648.706     355.787     897.247
  H      649.326     355.641     898.905
  H      649.963     356.917     897.841
  P      651.065     355.131     895.911
  C      653.465     355.996     896.365
  O      652.172     356.294     895.866
  C      654.529     356.631     895.476
  O      654.443     356.096     894.138
  C      654.406     358.139     895.316
  O      654.921     358.838     896.444
  C      655.267     358.366     894.077
  O      656.657     358.386     894.447
  C      654.965     357.113     893.237
  N      654.164     359.181     888.599
  C      655.265     359.131     889.392
  N      655.400     358.574     890.608
  C      654.250     358.005     891.011
  C      653.049     357.981     890.319
  C      653.030     358.602     889.057
  N      651.895     358.663     888.273
  N      652.085     357.300     891.036
  C      652.698     356.919     892.144
  N      654.002     357.335     892.178
  O      649.793     355.804     895.198
  O      651.449     353.850     895.247
  H      657.168     358.472     893.618
  H      649.708     355.437     894.298
  H      656.157     359.592     888.979
  H      652.231     356.349     892.935
  H      655.877     356.701     892.787
  H      655.048     359.306     893.568
  H      653.374     358.439     895.098
  H      655.516     356.362     895.879
  H      653.608     354.913     896.376
  H      651.994     358.945     887.307
  H      651.052     358.222     888.617
  H      653.547     356.374     897.387
  P      654.440     360.359     896.651
  C      652.076     359.733     897.528
  O      652.839     360.331     896.484
  O      654.935     361.087     895.323
  O      654.960     361.024     897.881
  H      655.061     362.041     895.487
  H      651.035     359.785     897.284
  H      652.254     360.256     898.444
  H      652.365     358.709     897.640

 6  7  8  9  10  11  12  13  14  15  25  28  32  33  34  35 0
 6-311+G(2d,p)
 ****
 36  39  40 0
 6-311+G(2d,p)
 ****
 1  2  3  4  5  16  17  18  19  20  21  22  23  24 0
 3-21G
 ****
 26  27  29  30  31  37  38  41  42  43  44  45  46  47  48 0
 3-21G
 ****


