%nproc=1
%NoSave
%Mem=1900MB
#P OB98/GEN NMR

erre ene a

0 1
  C      282.399    -640.734      60.034
  O      282.627    -640.035      61.243
  H      282.610    -640.063      59.198
  H      281.355    -641.053      59.973
  H      283.062    -641.599      59.970
  P      282.336    -640.837      62.601
  C      279.777    -641.101      62.324
  O      280.836    -640.429      62.992
  C      278.423    -640.620      62.843
  O      278.230    -641.050      64.201
  C      278.259    -639.103      62.847
  O      277.864    -638.642      61.564
  C      277.138    -638.937      63.863
  O      275.869    -639.196      63.234
  C      277.448    -640.040      64.891
  N      277.239    -639.358      69.978
  C      276.278    -639.637      69.069
  N      276.394    -639.752      67.728
  C      277.666    -639.552      67.340
  C      278.751    -639.254      68.151
  C      278.503    -639.161      69.532
  N      279.484    -638.874      70.454
  N      279.900    -639.109      67.400
  C      279.524    -639.378      66.168
  N      278.176    -639.615      66.074
  O      283.360    -640.685      63.673
  O      282.153    -642.328      62.042
  H      275.918    -640.095      62.862
  H      281.646    -642.321      61.210
  H      275.283    -639.792      69.474
  H      280.190    -639.431      65.314
  H      276.531    -640.527      65.250
  H      277.091    -637.927      64.274
  H      279.158    -638.594      63.215
  H      277.641    -641.093      62.236
  H      279.862    -642.184      62.474
  H      279.188    -638.638      71.387
  H      280.394    -638.602      70.108
  H      279.871    -640.889      61.255
  P      278.918    -637.956      60.569
  C      278.397    -635.529      61.246
  O      278.290    -636.521      60.230
  O      279.299    -638.795      59.399
  O      280.161    -637.592      61.505
  H      280.952    -637.414      60.956
  H      277.945    -634.620      60.906
  H      279.429    -635.354      61.466
  H      277.897    -635.868      62.129

 6  7  8  9  10  11  12  13  14  15  25  28  32  33  34  35 0
 6-311+G(2d,p)
 ****
 36  39  40 0
 6-311+G(2d,p)
 ****
 1  2  3  4  5  16  17  18  19  20  21  22  23  24 0
 3-21G
 ****
 26  27  29  30  31  37  38  41  42  43  44  45  46  47 0
 3-21G
 ****
 48 0
 3-21G
 ****


