%nproc=1
%NoSave
%Mem=1900MB
#P OB98/GEN NMR

erre ene a

0 1
  C     -266.673     417.240    -150.786
  O     -266.600     418.152    -149.710
  P     -266.661     417.658    -148.184
  C     -269.148     418.302    -148.147
  O     -267.885     418.451    -147.519
  C     -270.005     419.558    -147.979
  O     -270.298     419.763    -146.569
  C     -269.369     420.846    -148.513
  O     -270.442     421.654    -149.010
  C     -268.780     421.460    -147.259
  O     -268.514     422.852    -147.402
  C     -269.851     421.094    -146.224
  N     -269.345     421.168    -144.859
  C     -269.090     422.446    -144.353
  O     -269.222     423.437    -145.074
  N     -268.644     422.571    -143.063
  C     -268.376     421.506    -142.371
  N     -267.937     421.684    -141.099
  C     -268.508     420.139    -142.912
  C     -269.006     420.046    -144.142
  O     -265.373     417.744    -147.439
  O     -267.234     416.168    -148.293
  H     -267.908     422.977    -148.165
  H     -266.522     415.546    -148.590
  H     -268.216     419.282    -142.323
  H     -269.141     419.083    -144.622
  H     -270.720     421.762    -146.311
  H     -267.834     420.967    -147.015
  H     -268.622     420.676    -149.288
  H     -270.971     419.379    -148.483
  H     -267.874     422.643    -140.762
  H     -269.662     417.459    -147.678
  H     -267.779     420.928    -140.453
  H     -269.014     418.063    -149.207
  P     -271.121     421.350    -150.430
  C     -269.432     422.980    -151.451
  O     -270.796     422.596    -151.382
  O     -272.568     420.972    -150.371
  O     -270.235     420.171    -151.052
  H     -270.719     419.756    -151.792
  H     -269.288     423.632    -152.319
  H     -268.781     422.105    -151.555
  H     -269.161     423.529    -150.545
  H     -266.614     417.774    -151.711
  H     -267.600     416.707    -150.740
  H     -265.860     416.547    -150.722

 3  4  5  6  7  8  9  10  11  12  13  23  27  28  29  30  32 0
 6-311+G(2d,p)
 ****
 34  35 0
 6-311+G(2d,p)
 ****
 1  2  14  15  16  17  18  19  20  21  22  24  25  26 0
 3-21G
 ****
 31  33  36  37  38  39  40  41  42  43  44  45  46 0
 3-21G
 ****


