%nproc=1
%NoSave
%Mem=1900MB
#P OB98/GEN NMR

erre ene a

0 1
  C      229.444    -660.596     724.658
  O      229.169    -660.759     726.054
  P      227.740    -660.379     726.683
  C      228.202    -658.034     727.634
  O      227.506    -658.775     726.648
  C      227.542    -656.683     727.968
  O      228.201    -656.037     729.092
  C      227.538    -655.669     726.802
  O      226.345    -654.884     726.969
  C      228.778    -654.833     727.115
  O      228.786    -653.577     726.445
  C      228.688    -654.755     728.636
  N      231.473    -651.071     730.854
  C      230.164    -651.123     730.509
  N      229.490    -652.149     729.951
  C      230.287    -653.217     729.797
  C      231.634    -653.305     730.102
  C      232.243    -652.163     730.654
  N      233.577    -652.106     730.960
  N      232.122    -654.561     729.782
  C      231.093    -655.201     729.271
  N      229.961    -654.436     729.264
  O      227.470    -661.002     728.029
  O      226.671    -660.928     725.611
  H      228.089    -653.032     726.832
  H      225.960    -661.398     726.076
  H      229.598    -650.212     730.699
  H      231.122    -656.229     728.864
  H      227.965    -653.995     728.949
  H      229.669    -655.389     726.787
  H      227.563    -656.141     725.823
  H      226.519    -656.890     728.294
  H      229.245    -657.862     727.306
  H      233.935    -651.192     731.255
  H      234.190    -652.861     730.689
  H      228.259    -658.649     728.563
  P      225.243    -654.810     725.813
  C      226.054    -652.714     724.589
  O      225.948    -654.121     724.547
  O      223.959    -654.161     726.237
  O      225.012    -656.325     725.346
  H      224.166    -656.401     724.876
  H      225.075    -652.252     724.358
  H      226.779    -652.390     723.825
  H      226.397    -652.366     725.566
  H      230.447    -660.907     724.453
  H      229.328    -659.567     724.389
  H      228.763    -661.193     724.088

 3  4  5  6  7  8  9  10  11  12  22  25  29  30  31  32 0
 6-311+G(2d,p)
 ****
 33  36  37 0
 6-311+G(2d,p)
 ****
 1  2  13  14  15  16  17  18  19  20  21  23  24  26 0
 3-21G
 ****
 27  28  34  35  38  39  40  41  42  43  44  45  46  47  48 0
 3-21G
 ****


