%nproc=1
%NoSave
%Mem=1900MB
#P OB98/GEN NMR

erre ene a

0 1
  C     -183.421     716.522     117.949
  O     -182.948     717.818     117.594
  P     -183.884     718.795     116.760
  C     -185.495     719.746     118.560
  O     -184.357     720.005     117.703
  C     -185.635     720.850     119.607
  O     -184.610     720.818     120.587
  C     -185.587     722.269     118.998
  O     -186.783     722.546     118.300
  C     -185.331     723.107     120.238
  O     -186.559     723.381     120.956
  C     -184.418     722.165     121.090
  N     -183.009     722.547     121.055
  C     -182.486     723.051     122.242
  O     -183.223     723.211     123.242
  N     -181.178     723.421     122.284
  C     -180.424     723.270     121.227
  N     -179.116     723.650     121.310
  C     -180.939     722.751     119.942
  C     -182.210     722.417     119.915
  O     -185.012     718.128     116.013
  O     -182.880     719.523     115.743
  H     -186.316     724.028     121.637
  H     -183.343     719.746     114.936
  H     -180.278     722.638     119.086
  H     -182.666     722.017     119.037
  H     -184.739     722.169     122.126
  H     -184.869     724.064     119.967
  H     -184.732     722.336     118.295
  H     -186.614     720.706     120.113
  H     -178.782     724.001     122.226
  H     -185.364     718.777     119.065
  H     -178.443     723.513     120.568
  H     -186.400     719.643     117.942
  P     -186.648     722.959     116.748
  C     -187.882     720.865     115.789
  O     -187.882     722.285     115.965
  O     -185.382     722.073     116.276
  O     -186.452     724.398     116.479
  H     -184.907     722.580     115.570
  H     -188.919     720.544     115.555
  H     -187.560     720.357     116.700
  H     -187.213     720.596     114.956
  H     -182.665     716.006     118.504
  H     -183.651     715.971     117.061
  H     -184.302     716.616     118.549

 3  4  5  6  7  8  9  10  11  12  13  23  27  28  29  30  32 0
 6-311+G(2d,p)
 ****
 34  35 0
 6-311+G(2d,p)
 ****
 1  2  14  15  16  17  18  19  20  21  22  24  25  26 0
 3-21G
 ****
 31  33  36  37  38  39  40  41  42  43  44  45  46 0
 3-21G
 ****


