%nproc=1
%NoSave
%Mem=1900MB
#P OB98/GEN NMR

erre ene a

0 1
  C      111.446     331.473    -222.493
  O      111.939     332.142    -221.353
  H      112.022     330.556    -222.637
  H      111.566     332.108    -223.378
  H      110.392     331.208    -222.371
  P      111.078     333.336    -220.724
  C      110.517     332.090    -218.532
  O      111.176     333.199    -219.129
  C      111.234     331.660    -217.247
  O      112.508     331.057    -217.597
  C      111.540     332.862    -216.346
  O      111.598     332.499    -214.971
  C      112.927     333.279    -216.805
  O      113.646     334.020    -215.820
  C      113.558     331.925    -217.137
  N      118.342     330.720    -218.420
  C      117.713     330.613    -217.194
  N      118.458     330.114    -216.179
  N      116.477     330.981    -216.980
  C      115.878     331.526    -218.064
  C      116.406     331.706    -219.325
  C      117.763     331.263    -219.558
  O      118.374     331.358    -220.616
  N      115.498     332.304    -220.164
  C      114.428     332.486    -219.418
  N      114.601     332.009    -218.141
  O      109.563     332.904    -221.014
  O      111.374     334.702    -221.268
  H      114.485     334.304    -216.225
  H      108.980     333.680    -221.000
  H      119.284     330.394    -218.536
  H      113.506     332.945    -219.754
  H      113.996     331.472    -216.241
  H      112.822     333.924    -217.681
  H      119.457     330.008    -216.257
  H      110.830     333.673    -216.473
  H      118.123     330.317    -215.232
  H      110.649     330.889    -216.731
  H      110.530     331.283    -219.269
  H      109.472     332.330    -218.332
  P      111.656     333.666    -213.874
  C      109.586     332.812    -212.463
  O      110.944     333.183    -212.528
  O      110.664     334.780    -214.451
  O      113.030     334.211    -213.624
  H      111.157     335.593    -214.669
  H      109.342     332.527    -211.461
  H      109.410     331.987    -213.121
  H      108.976     333.640    -212.758

 6  7  8  9  10  11  12  13  14  15  26  29  33  34 0
 6-311+G(2d,p)
 ****
 36  38  39  40  41 0
 6-311+G(2d,p)
 ****
 1  2  3  4  5  16  17  18  19  20  21  22  23  24  25 0
 3-21G
 ****
 27  28  30  31  32  35  37  42  43  44  45  46  47 0
 3-21G
 ****
 48  49 0
 3-21G
 ****


