%nproc=1
%NoSave
%Mem=1900MB
#P OB98/GEN NMR

erre ene a

0 1
  C       -4.065     -91.266     257.861
  O       -5.250     -91.987     257.509
  P       -5.401     -93.515     257.963
  C       -3.607     -94.301     256.277
  O       -4.034     -94.294     257.635
  C       -2.786     -95.573     255.970
  O       -1.616     -95.625     256.829
  C       -3.587     -96.867     256.182
  O       -3.533     -97.752     255.056
  C       -3.039     -97.416     257.490
  O       -3.222     -98.820     257.620
  C       -1.589     -96.906     257.483
  N       -1.033     -96.832     258.841
  C       -0.503     -98.006     259.365
  O       -0.562     -99.091     258.780
  N        0.035     -97.909     260.625
  C        0.034     -96.802     261.413
  O        0.489     -96.775     262.554
  C       -0.598     -95.601     260.829
  C       -1.090     -95.673     259.588
  O       -6.644     -94.209     257.502
  O       -5.362     -93.419     259.567
  H       -4.176     -99.021     257.495
  H       -6.007     -94.069     259.920
  H        0.434     -98.750     261.014
  H       -0.638     -94.706     261.439
  H       -1.567     -94.810     259.136
  H       -0.941     -97.579     256.904
  H       -3.575     -96.941     258.320
  H       -4.660     -96.664     256.301
  H       -2.451     -95.493     254.929
  H       -2.983     -93.429     256.087
  H       -4.474     -94.217     255.620
  P       -4.687     -97.907     253.967
  C       -5.177    -100.408     254.471
  O       -5.675     -99.080     254.437
  O       -4.240     -98.001     252.546
  O       -5.568     -96.579     254.181
  H       -5.845     -96.237     253.309
  H       -6.031    -101.102     254.438
  H       -4.618    -100.571     255.394
  H       -4.528    -100.615     253.607
  H       -4.129     -90.268     257.482
  H       -3.212     -91.754     257.438
  H       -3.968     -91.237     258.926

 3  4  5  6  7  8  9  10  11  12  13  23  28  29  30  31  32 0
 6-311+G(2d,p)
 ****
 33  34 0
 6-311+G(2d,p)
 ****
 1  2  14  15  16  17  18  19  20  21  22  24  25  26  27 0
 3-21G
 ****
 35  36  37  38  39  40  41  42  43  44  45 0
 3-21G
 ****


