%nproc=1
%NoSave
%Mem=1900MB
#P OB98/GEN NMR

erre ene a

0 1
  C     -251.220     -46.833      74.563
  O     -250.227     -46.854      75.572
  H     -251.473     -45.794      74.342
  H     -252.118     -47.350      74.910
  H     -250.841     -47.307      73.654
  P     -249.698     -48.299      76.025
  C     -247.797     -48.232      74.269
  O     -248.979     -48.883      74.716
  C     -246.682     -49.248      74.036
  O     -245.491     -48.594      73.565
  C     -246.267     -50.021      75.281
  O     -247.165     -51.088      75.538
  C     -244.897     -50.526      74.857
  O     -245.045     -51.683      74.009
  C     -244.342     -49.346      74.039
  N     -239.559     -48.560      75.730
  C     -240.149     -49.641      75.176
  N     -241.434     -49.792      74.791
  C     -242.138     -48.674      75.027
  C     -241.672     -47.495      75.586
  C     -240.312     -47.456      75.938
  N     -239.712     -46.347      76.494
  N     -242.685     -46.562      75.676
  C     -243.729     -47.151      75.132
  N     -243.460     -48.444      74.757
  O     -250.704     -49.181      76.677
  O     -248.452     -47.891      76.945
  H     -245.498     -52.371      74.529
  H     -247.978     -47.132      76.562
  H     -239.503     -50.500      75.019
  H     -244.693     -46.684      74.972
  H     -243.787     -49.688      73.158
  H     -244.285     -50.833      75.708
  H     -246.152     -49.357      76.144
  H     -247.012     -49.932      73.243
  H     -247.473     -47.484      75.001
  H     -238.784     -46.461      76.871
  H     -240.301     -45.572      76.761
  H     -248.040     -47.717      73.334
  P     -246.886     -52.121      76.731
  C     -248.671     -50.955      78.167
  O     -247.316     -51.378      78.088
  O     -245.517     -52.707      76.751
  O     -248.011     -53.243      76.561
  H     -247.644     -54.124      76.766
  H     -248.841     -50.476      79.109
  H     -249.316     -51.804      78.077
  H     -248.876     -50.266      77.374

 6  7  8  9  10  11  12  13  14  15  25  28  32  33  34  35 0
 6-311+G(2d,p)
 ****
 36  39  40 0
 6-311+G(2d,p)
 ****
 1  2  3  4  5  16  17  18  19  20  21  22  23  24 0
 3-21G
 ****
 26  27  29  30  31  37  38  41  42  43  44  45  46  47 0
 3-21G
 ****
 48 0
 3-21G
 ****


