%nproc=1
%NoSave
%Mem=1900MB
#P OB98/GEN NMR

erre ene a

0 1
  C       44.521     335.927      -2.373
  O       44.782     337.320      -2.323
  P       43.535     338.325      -2.353
  C       41.826     339.150      -0.581
  O       42.694     338.107      -1.003
  C       40.652     338.590       0.223
  O       39.841     337.740      -0.631
  C       41.079     337.747       1.429
  O       40.126     337.917       2.489
  C       40.949     336.323       0.929
  O       40.782     335.402       2.006
  C       39.734     336.453       0.009
  N       37.217     332.314      -1.426
  C       36.844     333.301      -0.536
  N       35.682     333.110       0.123
  N       37.547     334.381      -0.315
  C       38.691     334.433      -1.042
  C       39.159     333.525      -1.966
  C       38.378     332.328      -2.190
  O       38.666     331.404      -2.943
  N       40.339     333.941      -2.524
  C       40.612     335.077      -1.911
  N       39.661     335.397      -0.978
  O       42.598     337.695      -3.488
  O       43.883     339.740      -2.670
  H       40.094     335.775       2.591
  H       42.652     338.235      -4.298
  H       36.647     331.492      -1.551
  H       41.490     335.685      -2.086
  H       38.797     336.444       0.581
  H       41.847     336.038       0.370
  H       35.130     332.269       0.048
  H       42.084     337.968       1.804
  H       35.409     333.796       0.815
  H       40.015     339.425       0.541
  H       41.443     339.672      -1.457
  H       42.388     339.869       0.026
  P       40.679     337.674       3.978
  C       42.425     338.967       5.410
  O       41.969     338.610       4.121
  O       41.286     336.196       3.907
  O       39.647     337.818       5.045
  H       41.283     335.788       4.794
  H       43.426     338.555       5.560
  H       41.766     338.596       6.201
  H       42.476     340.057       5.479
  H       45.446     335.390      -2.345
  H       44.000     335.694      -3.278
  H       43.920     335.646      -1.533

 3  4  5  6  7  8  9  10  11  12  23  26  30  31 0
 6-311+G(2d,p)
 ****
 33  35  36  37  38 0
 6-311+G(2d,p)
 ****
 1  2  13  14  15  16  17  18  19  20  21  22  24  25 0
 3-21G
 ****
 27  28  29  32  34  39  40  41  42  43  44  45  46  47  48  49 0
 3-21G
 ****


