%nproc=1
%NoSave
%Mem=1900MB
#P OB98/GEN NMR

erre ene a

0 1
  C      111.996      81.501     143.052
  O      111.357      82.365     143.974
  P      111.016      81.806     145.435
  C      108.446      81.823     145.043
  O      109.599      81.057     145.351
  C      107.341      81.558     146.068
  O      106.810      80.213     145.867
  C      107.805      81.652     147.528
  O      106.709      82.164     148.298
  C      108.047      80.198     147.889
  O      108.055      79.964     149.289
  C      106.885      79.538     147.138
  N      107.060      78.096     146.975
  C      106.906      77.302     148.106
  O      106.635      77.739     149.223
  N      107.137      75.963     147.931
  C      107.584      75.368     146.788
  O      107.884      74.182     146.728
  C      107.729      76.257     145.625
  C      107.465      77.557     145.768
  O      110.697      83.133     146.270
  O      112.103      80.999     146.063
  H      107.981      79.002     149.426
  H      111.468      83.390     146.810
  H      107.018      75.371     148.737
  H      108.062      75.814     144.695
  H      107.583      78.240     144.933
  H      105.939      79.733     147.660
  H      109.014      79.878     147.488
  H      108.693      82.276     147.666
  H      106.518      82.260     145.883
  H      108.088      81.548     144.050
  H      108.706      82.887     145.023
  P      107.004      83.376     149.311
  C      107.489      81.734     151.285
  O      107.943      82.791     150.467
  O      105.573      83.530     150.016
  O      107.474      84.622     148.635
  H      105.175      82.674     150.245
  H      106.848      81.043     150.732
  H      106.931      82.145     152.131
  H      108.353      81.185     151.666
  H      112.154      82.019     142.129
  H      111.379      80.644     142.879
  H      112.938      81.187     143.451

 3  4  5  6  7  8  9  10  11  12  13  23  28  29  30  31  32 0
 6-311+G(2d,p)
 ****
 33  34 0
 6-311+G(2d,p)
 ****
 1  2  14  15  16  17  18  19  20  21  22  24  25  26 0
 3-21G
 ****
 27  35  36  37  38  39  40  41  42  43  44  45 0
 3-21G
 ****


