%nproc=1
%NoSave
%Mem=1900MB
#P OB98/GEN NMR

erre ene a

0 1
  C      173.716     311.647    -107.557
  O      173.669     312.435    -108.732
  H      173.618     312.304    -106.689
  H      174.677     311.121    -107.490
  H      172.893     310.928    -107.553
  P      173.835     311.656    -110.127
  C      173.953     312.426    -112.599
  O      173.784     312.812    -111.239
  C      173.760     313.628    -113.523
  O      172.382     314.042    -113.524
  C      174.580     314.859    -113.136
  O      175.902     314.757    -113.635
  C      173.797     315.957    -113.839
  O      174.175     316.000    -115.230
  C      172.338     315.481    -113.706
  N      169.598     319.531    -112.136
  C      170.363     319.339    -113.239
  N      171.106     318.257    -113.560
  C      171.005     317.302    -112.623
  C      170.265     317.365    -111.446
  C      169.530     318.543    -111.213
  N      168.752     318.737    -110.091
  N      170.399     316.198    -110.717
  C      171.162     315.426    -111.470
  N      171.586     316.061    -112.612
  O      172.918     310.499    -110.334
  O      175.395     311.285    -110.085
  H      173.934     315.137    -115.620
  H      175.912     312.031    -109.731
  H      170.383     320.161    -113.945
  H      171.421     314.396    -111.245
  H      171.763     315.677    -114.624
  H      173.997     316.949    -113.428
  H      174.554     315.036    -112.053
  H      174.008     313.307    -114.547
  H      173.234     311.639    -112.859
  H      168.423     319.673    -109.920
  H      168.811     318.053    -109.356
  H      174.964     312.021    -112.704
  P      177.128     315.474    -112.885
  C      179.611     314.826    -113.080
  O      178.287     314.363    -112.834
  O      176.774     316.102    -111.580
  O      177.686     316.524    -113.954
  H      178.253     317.186    -113.505
  H      180.293     314.004    -113.020
  H      179.874     315.561    -112.348
  H      179.661     315.261    -114.056

 6  7  8  9  10  11  12  13  14  15  25  28  32  33  34  35 0
 6-311+G(2d,p)
 ****
 36  39  40 0
 6-311+G(2d,p)
 ****
 1  2  3  4  5  16  17  18  19  20  21  22  23  24 0
 3-21G
 ****
 26  27  29  30  31  37  38  41  42  43  44  45  46  47 0
 3-21G
 ****
 48 0
 3-21G
 ****


