%nproc=1
%NoSave
%Mem=1900MB
#P OB98/GEN NMR

erre ene a

0 1
  C      -29.655     189.699    1414.129
  O      -29.858     190.497    1415.277
  P      -30.664     189.810    1416.505
  C      -29.685     191.782    1417.878
  O      -30.807     190.923    1417.656
  C      -30.178     193.123    1418.424
  O      -30.959     192.932    1419.652
  C      -29.032     194.124    1418.828
  O      -28.451     194.717    1417.693
  C      -29.833     195.075    1419.728
  O      -30.586     196.021    1418.922
  C      -30.802     194.115    1420.471
  N      -29.107     195.752    1425.020
  C      -29.506     196.435    1423.908
  N      -29.930     195.936    1422.732
  C      -29.906     194.588    1422.747
  C      -29.527     193.767    1423.823
  C      -29.107     194.402    1424.992
  N      -28.709     193.726    1426.116
  N      -29.618     192.449    1423.508
  C      -30.081     192.447    1422.270
  N      -30.315     193.713    1421.778
  O      -29.612     188.746    1417.117
  O      -31.945     189.125    1416.115
  H      -29.946     196.495    1418.384
  H      -30.079     187.939    1417.445
  H      -29.469     197.513    1423.995
  H      -30.328     191.547    1421.686
  H      -31.808     194.548    1420.612
  H      -29.167     195.628    1420.409
  H      -28.287     193.589    1419.442
  H      -30.834     193.607    1417.680
  H      -29.146     191.979    1416.936
  H      -28.293     194.286    1426.875
  H      -28.569     192.722    1426.070
  H      -29.002     191.319    1418.600
  P      -26.848     194.977    1417.732
  C      -27.035     195.172    1415.174
  O      -26.573     195.766    1416.379
  O      -26.291     193.506    1417.430
  O      -26.368     195.619    1419.011
  H      -26.716     193.084    1416.679
  H      -26.823     195.813    1414.358
  H      -28.121     194.985    1415.213
  H      -26.512     194.195    1415.024
  H      -29.116     190.261    1413.395
  H      -30.602     189.404    1413.727
  H      -29.094     188.828    1414.395

 3  4  5  6  7  8  9  10  11  12  22  25  29  30  31  32 0
 6-311+G(2d,p)
 ****
 33  36  37 0
 6-311+G(2d,p)
 ****
 1  2  13  14  15  16  17  18  19  20  21  23  24  26 0
 3-21G
 ****
 27  28  34  35  38  39  40  41  42  43  44  45  46  47  48 0
 3-21G
 ****


