%nproc=1
%NoSave
%Mem=1900MB
#P OB98/GEN NMR

erre ene a

0 1
  C      315.196    -238.751      54.356
  O      315.768    -237.639      55.056
  P      317.238    -237.151      54.631
  C      316.740    -235.025      56.044
  O      317.700    -235.996      55.655
  C      317.285    -234.173      57.203
  O      317.475    -234.965      58.400
  C      318.647    -233.554      56.911
  O      318.521    -232.352      56.158
  C      319.137    -233.237      58.312
  O      318.521    -232.019      58.784
  C      318.633    -234.443      59.106
  N      322.185    -236.336      62.183
  C      321.346    -235.241      62.350
  N      321.468    -234.557      63.513
  N      320.456    -234.850      61.462
  C      320.435    -235.652      60.349
  C      321.230    -236.756      60.062
  C      322.208    -237.151      61.048
  O      322.981    -238.099      60.956
  N      320.905    -237.278      58.850
  C      319.942    -236.507      58.393
  N      319.623    -235.488      59.264
  O      316.955    -236.332      53.277
  O      318.222    -238.251      54.410
  H      318.794    -231.320      58.163
  H      317.744    -236.360      52.702
  H      322.849    -236.579      62.897
  H      319.427    -236.649      57.449
  H      318.305    -234.160      60.128
  H      320.231    -233.084      58.356
  H      322.092    -234.836      64.263
  H      319.325    -234.274      56.418
  H      320.835    -233.783      63.673
  H      316.564    -233.363      57.418
  H      315.802    -235.503      56.358
  H      316.492    -234.402      55.178
  P      319.327    -232.233      54.765
  C      317.298    -231.496      53.310
  O      318.556    -231.151      53.890
  O      318.974    -233.635      54.047
  O      320.804    -232.037      54.910
  H      319.746    -233.915      53.498
  H      316.849    -230.590      52.899
  H      316.619    -231.899      54.075
  H      317.434    -232.233      52.520
  H      314.222    -238.957      54.748
  H      315.820    -239.611      54.482
  H      315.119    -238.516      53.315

 3  4  5  6  7  8  9  10  11  12  23  26  30  31 0
 6-311+G(2d,p)
 ****
 33  35  36  37  38 0
 6-311+G(2d,p)
 ****
 1  2  13  14  15  16  17  18  19  20  21  22  24  25 0
 3-21G
 ****
 27  28  29  32  34  39  40  41  42  43  44  45  46  47  48  49 0
 3-21G
 ****


