%nproc=1
%NoSave
%Mem=1900MB
#P OB98/GEN NMR

erre ene a

0 1
  C      813.972     196.283     251.965
  O      812.668     196.750     252.216
  P      811.808     197.434     251.033
  C      811.016     199.268     252.662
  O      811.675     198.984     251.422
  C      811.787     200.342     253.430
  O      813.215     200.066     253.398
  C      811.654     201.741     252.853
  O      810.379     202.352     252.901
  C      812.801     202.468     253.551
  O      812.422     202.870     254.876
  C      813.871     201.360     253.603
  N      814.950     201.574     252.630
  C      816.081     202.225     253.096
  O      816.212     202.595     254.267
  N      817.063     202.456     252.171
  C      817.001     202.171     250.839
  O      817.891     202.454     250.054
  C      815.771     201.496     250.393
  C      814.808     201.240     251.293
  O      810.523     196.752     250.708
  O      812.844     197.484     249.809
  H      811.966     202.107     255.275
  H      813.657     197.995     249.985
  H      817.883     202.944     252.488
  H      815.691     201.243     249.337
  H      813.881     200.745     250.986
  H      814.332     201.320     254.600
  H      813.097     203.373     253.005
  H      811.918     201.692     251.783
  H      811.470     200.303     254.480
  H      810.983     198.344     253.259
  H      809.984     199.584     252.475
  P      809.641     202.955     251.611
  C      810.008     205.369     252.498
  O      810.129     204.468     251.423
  O      808.177     202.689     251.480
  O      810.413     202.212     250.412
  H      809.797     202.089     249.666
  H      810.363     206.354     252.175
  H      810.633     205.039     253.339
  H      808.964     205.429     252.821
  H      814.380     195.865     252.862
  H      814.586     197.097     251.639
  H      813.942     195.532     251.203

 3  4  5  6  7  8  9  10  11  12  13  23  28  29  30  31  32 0
 6-311+G(2d,p)
 ****
 33  34 0
 6-311+G(2d,p)
 ****
 1  2  14  15  16  17  18  19  20  21  22  24  25  26  27 0
 3-21G
 ****
 35  36  37  38  39  40  41  42  43  44  45 0
 3-21G
 ****


