%nproc=1
%NoSave
%Mem=1900MB
#P OB98/GEN NMR

erre ene a

0 1
  C     -299.935    -893.284     385.161
  O     -299.506    -893.864     383.948
  H     -300.462    -892.344     384.958
  H     -300.632    -893.964     385.654
  H     -299.086    -893.104     385.821
  P     -298.267    -893.174     383.197
  C     -296.746    -895.244     383.559
  O     -296.941    -893.854     383.799
  C     -295.368    -895.484     382.917
  O     -295.319    -894.734     381.667
  C     -294.184    -895.024     383.779
  O     -293.114    -895.984     383.624
  C     -293.768    -893.714     383.150
  O     -292.390    -893.394     383.376
  C     -294.095    -893.974     381.680
  N     -291.516    -890.274     379.296
  C     -291.154    -891.534     379.694
  N     -291.934    -892.464     380.277
  C     -293.194    -892.054     380.388
  C     -293.714    -890.804     380.024
  C     -292.794    -889.884     379.487
  N     -293.122    -888.594     379.150
  N     -295.051    -890.734     380.352
  C     -295.338    -891.894     380.917
  N     -294.247    -892.714     380.954
  O     -298.256    -891.694     383.835
  O     -298.351    -893.134     381.710
  H     -291.869    -894.224     383.340
  H     -298.847    -891.114     383.323
  H     -290.120    -891.804     379.523
  H     -296.297    -892.174     381.343
  H     -293.312    -894.554     381.162
  H     -294.372    -892.894     383.557
  H     -294.424    -894.924     384.850
  H     -295.293    -896.544     382.665
  H     -297.523    -895.604     382.882
  H     -292.382    -887.984     378.862
  H     -294.053    -888.264     379.387
  H     -296.815    -895.784     384.502
  P     -292.647    -896.794     384.920
  C     -293.034    -899.034     383.631
  O     -293.233    -898.284     384.831
  O     -293.518    -896.124     386.098
  O     -291.184    -896.704     385.202
  H     -293.010    -896.124     386.932
  H     -293.483    -900.000     383.735
  H     -291.985    -899.146     383.450
  H     -293.485    -898.518     382.809

 6  7  8  9  10  11  12  13  14  15  25  28  32  33  34  35 0
 6-311+G(2d,p)
 ****
 36  39  40 0
 6-311+G(2d,p)
 ****
 1  2  3  4  5  16  17  18  19  20  21  22  23  24 0
 3-21G
 ****
 26  27  29  30  31  37  38  41  42  43  44  45  46  47 0
 3-21G
 ****
 48 0
 3-21G
 ****


