%nproc=1
%NoSave
%Mem=1900MB
#P OB98/GEN NMR

erre ene a

0 1
  C     -292.388     314.667     363.052
  O     -291.744     313.542     362.481
  H     -291.870     314.938     363.978
  H     -293.429     314.428     363.288
  H     -292.350     315.515     362.361
  P     -292.428     312.918     361.166
  C     -292.364     310.660     362.478
  O     -293.134     311.580     361.711
  C     -293.154     309.373     362.691
  O     -294.353     309.630     363.452
  C     -293.631     308.705     361.402
  O     -292.611     307.986     360.726
  C     -294.691     307.771     361.973
  O     -294.054     306.657     362.620
  C     -295.378     308.707     362.992
  N     -296.519     309.438     362.424
  C     -297.769     308.814     362.499
  O     -297.888     307.697     363.009
  N     -298.856     309.444     361.953
  C     -298.721     310.612     361.409
  N     -299.837     311.189     360.873
  C     -297.425     311.320     361.317
  C     -296.382     310.680     361.841
  O     -291.183     312.345     360.339
  O     -293.318     313.831     360.394
  H     -294.758     306.158     363.069
  H     -291.505     311.803     359.577
  H     -297.356     312.285     360.841
  H     -295.397     311.137     361.814
  H     -295.724     308.142     363.866
  H     -295.353     307.362     361.211
  H     -294.114     309.424     360.732
  H     -292.528     308.691     363.284
  H     -300.700     310.661     360.896
  H     -292.137     311.124     363.443
  H     -299.806     312.020     360.298
  H     -291.429     310.432     361.960
  P     -292.917     307.507     359.229
  C     -292.887     304.963     359.798
  O     -293.640     306.081     359.333
  O     -291.466     307.149     358.652
  O     -293.617     308.519     358.373
  H     -291.409     307.349     357.697
  H     -293.510     304.093     359.809
  H     -292.532     305.159     360.788
  H     -292.055     304.798     359.146

 6  7  8  9  10  11  12  13  14  15  16  26  30  31  32  33  35 0
 6-311+G(2d,p)
 ****
 37  38 0
 6-311+G(2d,p)
 ****
 1  2  3  4  5  17  18  19  20  21  22  23  24  25 0
 3-21G
 ****
 27  28  29  34  36  39  40  41  42  43  44  45  46 0
 3-21G
 ****


