%nproc=1
%NoSave
%Mem=1900MB
#P OB98/GEN NMR

erre ene a

0 1
  C       44.327     636.430    -659.412
  O       43.953     636.102    -660.742
  P       44.181     637.149    -661.930
  C       44.498     635.284    -663.668
  O       43.731     636.417    -663.300
  C       44.327     634.953    -665.152
  O       42.974     634.501    -665.390
  C       44.579     636.142    -666.109
  O       45.164     635.592    -667.296
  C       43.179     636.647    -666.398
  O       43.103     637.417    -667.596
  C       42.425     635.312    -666.457
  N       37.990     636.474    -668.761
  C       39.262     636.435    -669.215
  N       40.395     636.137    -668.529
  C       40.121     635.859    -667.238
  C       38.878     635.878    -666.632
  C       37.769     636.176    -667.433
  N       36.459     636.195    -667.001
  N       39.005     635.588    -665.275
  C       40.293     635.402    -665.093
  N       40.999     635.491    -666.258
  O       45.531     637.776    -661.983
  O       43.038     638.238    -661.711
  H       43.677     638.195    -667.501
  H       43.437     639.071    -661.355
  H       39.387     636.674    -670.264
  H       40.773     635.201    -664.145
  H       42.577     634.784    -667.411
  H       42.834     637.275    -665.581
  H       45.239     636.917    -665.688
  H       44.995     634.109    -665.403
  H       44.152     634.430    -663.077
  H       35.731     636.283    -667.687
  H       36.244     635.734    -666.109
  H       45.558     635.457    -663.433
  P       46.537     636.195    -667.875
  C       47.761     633.984    -668.205
  O       47.145     635.075    -668.849
  O       47.464     636.759    -666.859
  O       46.029     637.336    -668.909
  H       46.773     637.944    -669.108
  H       48.773     634.256    -667.883
  H       47.828     633.144    -668.919
  H       47.199     633.660    -667.335
  H       44.098     635.610    -658.764
  H       43.787     637.297    -659.093
  H       45.377     636.630    -659.376

 3  4  5  6  7  8  9  10  11  12  22  25  29  30  31  32 0
 6-311+G(2d,p)
 ****
 33  36  37 0
 6-311+G(2d,p)
 ****
 1  2  13  14  15  16  17  18  19  20  21  23  24  26 0
 3-21G
 ****
 27  28  34  35  38  39  40  41  42  43  44  45  46  47  48 0
 3-21G
 ****


