%nproc=1
%NoSave
%Mem=1900MB
#P OB98/GEN NMR

erre ene a

0 1
  C      116.070     -53.422     111.586
  O      116.158     -52.072     111.188
  H      116.577     -54.038     110.840
  H      115.020     -53.721     111.635
  H      116.544     -53.585     112.558
  P      115.918     -50.930     112.281
  C      118.411     -50.459     112.752
  O      117.182     -49.939     112.258
  C      119.524     -49.411     112.714
  O      119.888     -49.140     111.343
  C      119.094     -48.074     113.330
  O      119.278     -47.984     114.731
  C      119.993     -47.086     112.593
  O      121.251     -46.918     113.271
  C      120.202     -47.743     111.226
  N      119.802     -46.439     106.300
  C      120.907     -46.907     106.986
  N      122.049     -46.998     106.271
  N      120.885     -47.232     108.252
  C      119.698     -46.990     108.854
  C      118.539     -46.511     108.283
  C      118.551     -46.225     106.863
  O      117.596     -45.823     106.208
  N      117.543     -46.357     109.217
  C      118.127     -46.658     110.360
  N      119.408     -47.126     110.178
  O      116.110     -51.702     113.674
  O      114.577     -50.259     112.232
  H      121.668     -47.798     113.351
  H      115.542     -51.296     114.353
  H      119.871     -46.232     105.319
  H      117.657     -46.604     111.335
  H      121.252     -47.679     110.909
  H      119.529     -46.096     112.547
  H      122.144     -46.685     105.320
  H      118.055     -47.848     113.071
  H      122.922     -47.156     106.779
  H      120.416     -49.811     113.211
  H      118.672     -51.303     112.114
  H      118.281     -50.841     113.769
  P      118.259     -47.158     115.643
  C      117.100     -49.240     116.744
  O      117.857     -48.060     116.895
  O      116.924     -47.133     114.762
  O      118.706     -45.784     116.023
  H      116.845     -46.287     114.283
  H      116.944     -49.689     117.703
  H      117.627     -49.924     116.112
  H      116.155     -49.003     116.302

 6  7  8  9  10  11  12  13  14  15  26  29  33  34 0
 6-311+G(2d,p)
 ****
 36  38  39  40  41 0
 6-311+G(2d,p)
 ****
 1  2  3  4  5  16  17  18  19  20  21  22  23  24  25 0
 3-21G
 ****
 27  28  30  31  32  35  37  42  43  44  45  46  47 0
 3-21G
 ****
 48  49 0
 3-21G
 ****


