%nproc=1
%NoSave
%Mem=1900MB
#P OB98/GEN NMR

erre ene a

0 1
  C     -198.088      94.897     -53.123
  O     -196.793      95.345     -53.499
  P     -195.803      95.814     -52.324
  C     -194.392      93.637     -52.368
  O     -195.288      94.462     -51.631
  C     -193.028      93.591     -51.692
  O     -193.192      93.386     -50.277
  C     -192.125      92.462     -52.164
  O     -191.473      92.779     -53.385
  C     -191.130      92.383     -51.017
  O     -190.117      93.393     -51.182
  C     -192.009      92.699     -49.796
  N     -191.242      89.906     -45.643
  C     -190.623      91.070     -46.054
  N     -189.683      91.575     -45.226
  N     -190.898      91.682     -47.176
  C     -191.885      91.084     -47.882
  C     -192.573      89.929     -47.582
  C     -192.223      89.234     -46.362
  O     -192.692      88.166     -45.979
  N     -193.515      89.647     -48.537
  C     -193.424      90.645     -49.392
  N     -192.428      91.527     -49.055
  O     -196.801      96.429     -51.234
  O     -194.754      96.790     -52.731
  H     -189.694      93.234     -52.046
  H     -196.328      97.082     -50.683
  H     -191.004      89.486     -44.762
  H     -194.054      90.766     -50.263
  H     -191.501      93.383     -49.106
  H     -190.613      91.419     -50.965
  H     -189.522      91.224     -44.294
  H     -192.678      91.519     -52.238
  H     -189.245      92.446     -45.493
  H     -192.540      94.563     -51.840
  H     -194.275      94.044     -53.377
  H     -194.819      92.632     -52.442
  P     -191.068      91.541     -54.326
  C     -193.406      91.586     -55.457
  O     -192.454      90.843     -54.721
  O     -190.392      90.512     -53.305
  O     -190.161      91.898     -55.454
  H     -189.762      89.934     -53.777
  H     -192.924      92.249     -56.181
  H     -194.014      92.180     -54.768
  H     -194.055      90.893     -55.996
  H     -198.637      94.618     -53.998
  H     -198.604      95.684     -52.615
  H     -197.998      94.052     -52.473

 3  4  5  6  7  8  9  10  11  12  23  26  30  31  33  0
 6-311+G(2d,p)
 ****
 35  36  37  38 0
 6-311+G(2d,p)
 ****
 1  2  13  14  15  16  17  18  19  20  21  22  24  25  27  28  29 0
 3-21G
 ****
 32  34  39  40  41  42  43  44  45  46  47  48  49 0
 3-21G
 ****


