%nproc=1
%NoSave
%Mem=1900MB
#P OB98/GEN NMR

erre ene a

0 1
  C     -165.832    -250.976     433.431
  O     -166.112    -250.167     434.575
  P     -165.394    -248.749     434.736
  C     -165.795    -246.292     434.031
  O     -166.179    -247.651     433.867
  C     -166.824    -245.374     433.356
  O     -166.916    -245.637     431.934
  C     -168.240    -245.585     433.880
  O     -168.498    -245.169     435.205
  C     -169.086    -244.970     432.776
  O     -169.191    -243.557     432.921
  C     -168.264    -245.333     431.517
  N     -168.848    -246.441     430.762
  C     -169.716    -246.093     429.734
  O     -170.036    -244.929     429.480
  N     -170.247    -247.133     429.021
  C     -170.023    -248.462     429.253
  O     -170.548    -249.352     428.597
  C     -169.116    -248.770     430.363
  C     -168.580    -247.763     431.057
  O     -163.910    -248.748     434.570
  O     -165.773    -248.326     436.241
  H     -169.727    -243.385     433.724
  H     -164.987    -247.920     436.646
  H     -170.878    -246.899     428.268
  H     -168.917    -249.810     430.582
  H     -167.900    -247.969     431.883
  H     -168.198    -244.467     430.842
  H     -170.108    -245.372     432.784
  H     -168.441    -246.668     433.866
  H     -166.502    -244.339     433.477
  H     -164.806    -246.129     433.599
  H     -165.708    -246.069     435.096
  P     -169.072    -246.145     436.342
  C     -167.824    -247.616     438.073
  O     -167.930    -247.206     436.728
  O     -170.457    -246.663     436.159
  O     -169.057    -245.171     437.623
  H     -169.810    -245.415     438.200
  H     -166.992    -248.317     438.154
  H     -168.737    -248.118     438.401
  H     -167.618    -246.756     438.718
  H     -166.397    -251.883     433.489
  H     -164.788    -251.207     433.405
  H     -166.102    -250.444     432.543

 3  4  5  6  7  8  9  10  11  12  13  23  28  29  30  31  32 0
 6-311+G(2d,p)
 ****
 33  34 0
 6-311+G(2d,p)
 ****
 1  2  14  15  16  17  18  19  20  21  22  24  25  26  27 0
 3-21G
 ****
 35  36  37  38  39  40  41  42  43  44  45 0
 3-21G
 ****


