%nproc=1
%NoSave
%Mem=1900MB
#P OB98/GEN NMR

erre ene a

0 1
  C     -896.300     227.719     541.534
  O     -897.310     228.232     540.664
  P     -897.910     229.693     540.942
  C     -897.800     230.706     538.573
  O     -897.270     230.723     539.890
  C     -897.110     231.760     537.691
  O     -897.450     233.093     538.164
  C     -895.580     231.630     537.685
  O     -895.020     231.600     536.368
  C     -895.130     232.784     538.571
  O     -893.790     233.198     538.308
  C     -896.230     233.832     538.354
  N     -896.310     234.770     539.478
  C     -895.480     235.874     539.434
  O     -894.630     236.048     538.556
  N     -895.590     236.753     540.481
  C     -896.390     236.598     541.570
  O     -896.420     237.396     542.500
  C     -897.210     235.382     541.595
  C     -897.140     234.538     540.556
  O     -897.900     230.143     542.356
  O     -899.430     229.560     540.407
  H     -893.570     233.939     538.915
  H     -900.000     230.058     541.018
  H     -895.000     237.574     540.451
  H     -897.840     235.210     542.459
  H     -897.720     233.624     540.553
  H     -896.040     234.423     537.455
  H     -895.170     232.448     539.613
  H     -895.260     230.686     538.132
  H     -897.510     231.647     536.670
  H     -898.870     230.915     538.597
  H     -897.700     229.697     538.154
  P     -895.040     230.324     535.411
  C     -895.900     231.770     533.446
  O     -896.070     230.598     534.215
  O     -895.200     229.003     536.091
  O     -893.600     230.397     534.696
  H     -893.230     229.502     534.617
  H     -896.850     231.998     532.947
  H     -895.140     231.606     532.680
  H     -895.620     232.623     534.074
  H     -896.013     226.741     541.209
  H     -896.682     227.666     542.532
  H     -895.448     228.366     541.513

 3  4  5  6  7  8  9  10  11  12  13  23  28  29  30  31  32 0
 6-311+G(2d,p)
 ****
 33  34 0
 6-311+G(2d,p)
 ****
 1  2  14  15  16  17  18  19  20  21  22  24  25  26  27 0
 3-21G
 ****
 35  36  37  38  39  40  41  42  43  44  45 0
 3-21G
 ****


