%nproc=1
%NoSave
%Mem=1900MB
#P OB98/GEN NMR

erre ene a

0 1
  C     -169.067    -894.320      53.550
  O     -168.195    -894.570      52.467
  H     -168.678    -893.480      54.128
  H     -169.124    -895.200      54.204
  H     -170.068    -894.060      53.189
  P     -168.603    -895.760      51.481
  C     -169.524    -893.780      50.047
  O     -169.663    -895.150      50.456
  C     -170.377    -893.500      48.810
  O     -169.771    -894.170      47.665
  C     -171.821    -894.000      48.910
  O     -172.656    -893.150      48.104
  C     -171.720    -895.380      48.248
  O     -172.988    -895.900      47.953
  C     -170.786    -895.040      47.092
  N     -170.286    -897.730      42.779
  C     -170.908    -896.570      43.046
  N     -170.998    -895.900      44.209
  C     -170.308    -896.550      45.185
  C     -169.593    -897.730      45.054
  C     -169.599    -898.340      43.782
  N     -168.957    -899.520      43.517
  N     -169.024    -898.090      46.258
  C     -169.383    -897.140      47.094
  N     -170.172    -896.190      46.490
  O     -169.500    -896.720      52.413
  O     -167.471    -896.490      50.849
  H     -173.358    -895.470      47.154
  H     -168.941    -897.430      52.774
  H     -171.433    -896.100      42.207
  H     -169.106    -897.090      48.144
  H     -171.305    -894.470      46.311
  H     -171.231    -896.100      48.944
  H     -172.213    -894.030      49.940
  H     -170.342    -892.430      48.582
  H     -168.478    -893.590      49.835
  H     -169.851    -893.130      50.886
  H     -169.024    -899.900      42.581
  H     -168.473    -900.000      44.252
  P     -173.416    -891.920      48.772
  C     -172.415    -889.920      47.393
  O     -172.474    -890.610      48.634
  O     -173.267    -892.250      50.336
  O     -174.847    -891.730      48.395
  H     -174.023    -891.830      50.825
  H     -171.750    -889.086      47.480
  H     -173.392    -889.571      47.132
  H     -172.058    -890.583      46.633

 6  7  8  9  10  11  12  13  14  15  25  28  32  33  34  35 0
 6-311+G(2d,p)
 ****
 36  37  40 0
 6-311+G(2d,p)
 ****
 1  2  3  4  5  16  17  18  19  20  21  22  23  24 0
 3-21G
 ****
 26  27  29  30  31  38  39 41  42  43  44  45  46  47  48 0
 3-21G
 ****


