%nproc=1
%NoSave
%Mem=1900MB
#P OB98/GEN NMR

erre ene a

0 1
  C      426.590    -105.505      17.471
  O      426.427    -106.909      17.555
  H      425.604    -105.043      17.364
  H      427.195    -105.254      16.596
  H      427.066    -105.120      18.376
  P      427.731    -107.753      17.949
  C      429.886    -108.473      16.638
  O      428.799    -107.566      16.759
  C      430.314    -108.586      15.178
  O      429.281    -109.206      14.387
  C      430.538    -107.249      14.488
  O      431.721    -106.610      14.915
  C      430.576    -107.687      13.030
  O      431.879    -108.144      12.649
  C      429.557    -108.852      13.011
  N      428.355    -108.505      12.276
  C      428.562    -108.077      10.958
  O      429.702    -108.033      10.493
  N      427.478    -107.675      10.221
  C      426.298    -107.671      10.759
  N      425.273    -107.229       9.985
  C      426.038    -108.113      12.144
  C      427.102    -108.513      12.840
  O      427.235    -109.261      17.760
  O      428.284    -107.456      19.302
  H      432.469    -107.364      12.698
  H      426.789    -109.423      16.913
  H      425.034    -108.105      12.541
  H      427.002    -108.854      13.865
  H      430.000    -109.741      12.542
  H      430.317    -106.865      12.357
  H      429.662    -106.601      14.627
  H      431.215    -109.214      15.132
  H      425.503    -106.883       9.060
  H      429.610    -109.457      17.029
  H      424.328    -107.108      10.319
  H      430.709    -108.091      17.249
  P      431.835    -105.013      14.961
  C      433.411    -103.816      13.313
  O      432.191    -104.532      13.467
  O      432.739    -104.467      16.013
  O      430.310    -104.547      15.105
  H      429.725    -104.827      14.381
  H      433.541    -103.550      12.285
  H      434.228    -104.431      13.628
  H      433.382    -102.929      13.910

 6  7  8  9  10  11  12  13  14  15  16  26  30  31  32  33  35 0
 6-311+G(2d,p)
 ****
 37  38 0
 6-311+G(2d,p)
 ****
 1  2  3  4  5  17  18  19  20  21  22  23  24  25 0
 3-21G
 ****
 27  28  29  34  36  39  40  41  42  43  44  45  46 0
 3-21G
 ****


