%nproc=1
%NoSave
%Mem=1900MB
#P OB98/GEN NMR

erre ene a

0 1
  C        0.275    -176.832      -8.371
  O        1.175    -177.004      -9.445
  H       -0.210    -175.858      -8.474
  H        0.808    -176.856      -7.418
  H       -0.496    -177.608      -8.387
  P        2.023    -178.364      -9.525
  C        1.668    -178.739     -12.064
  O        2.581    -178.393     -11.034
  C        2.311    -178.527     -13.431
  O        2.657    -177.144     -13.642
  C        3.614    -179.284     -13.652
  O        3.444    -180.680     -13.850
  C        4.121    -178.580     -14.898
  O        3.383    -179.040     -16.044
  C        3.784    -177.110     -14.564
  N        4.912    -176.394     -13.970
  C        5.121    -175.078     -14.409
  O        4.386    -174.576     -15.260
  N        6.182    -174.370     -13.899
  C        6.983    -174.933     -13.045
  N        8.026    -174.187     -12.579
  C        6.810    -176.322     -12.572
  C        5.774    -176.983     -13.063
  O        1.317    -179.603      -9.077
  O        3.357    -178.052      -8.695
  H        3.758    -178.591     -16.822
  H        3.915    -178.869      -8.703
  H        7.524    -176.750     -11.882
  H        5.582    -178.011     -12.773
  H        3.453    -176.570     -15.460
  H        5.179    -178.763     -15.095
  H        4.321    -179.092     -12.832
  H        1.563    -178.791     -14.192
  H        8.117    -173.240     -12.921
  H        0.773    -178.120     -11.951
  H        8.739    -174.567     -11.970
  H        1.386    -179.794     -11.974
  P        4.678    -181.628     -13.451
  C        3.238    -183.598     -12.512
  O        4.128    -183.134     -13.518
  O        4.862    -181.347     -11.890
  O        5.935    -181.396     -14.234
  H        5.586    -180.709     -11.734
  H        2.974    -184.616     -12.711
  H        2.355    -182.994     -12.511
  H        3.715    -183.533     -11.556

 6  7  8  9  10  11  12  13  14  15  16  26  30  31  32  33  35 0
 6-311+G(2d,p)
 ****
 37  38 0
 6-311+G(2d,p)
 ****
 1  2  3  4  5  17  18  19  20  21  22  23  24  25 0
 3-21G
 ****
 27  28  29  34  36  39  40  41  42  43  44  45  46 0
 3-21G
 ****


