%nproc=1
%NoSave
%Mem=1900MB
#P OB98/GEN NMR

erre ene a

0 1
  C      428.920     -67.433    -857.121
  O      429.395     -68.112    -855.958
  P      430.680     -67.495    -855.212
  C      432.552     -68.435    -856.809
  O      431.829     -67.310    -856.319
  C      432.921     -68.239    -858.288
  O      434.060     -67.354    -858.376
  C      433.341     -69.516    -859.026
  O      433.226     -69.286    -860.440
  C      434.792     -69.623    -858.643
  O      435.513     -70.484    -859.523
  C      435.251     -68.150    -858.644
  N      436.296     -67.841    -857.640
  C      437.436     -68.635    -857.611
  O      437.649     -69.566    -858.382
  N      438.365     -68.333    -856.634
  C      438.253     -67.325    -855.724
  O      439.058     -67.160    -854.805
  C      437.090     -66.435    -855.884
  C      436.181     -66.743    -856.803
  O      431.197     -68.703    -854.305
  O      430.382     -66.273    -854.419
  H      436.451     -70.477    -859.209
  H      430.978     -68.542    -853.372
  H      439.161     -68.937    -856.562
  H      437.017     -65.578    -855.217
  H      435.304     -66.096    -856.920
  H      435.654     -67.850    -859.628
  H      434.888     -70.040    -857.631
  H      432.772     -70.413    -858.747
  H      432.085     -67.761    -858.812
  H      431.955     -69.338    -856.672
  H      433.469     -68.564    -856.222
  P      431.902     -69.801    -861.183
  C      432.696     -72.184    -861.746
  O      431.840     -71.397    -860.943
  O      431.730     -69.353    -862.595
  O      430.723     -69.269    -860.236
  H      429.882     -69.250    -860.724
  H      432.955     -73.089    -861.194
  H      433.615     -71.650    -862.014
  H      432.164     -72.473    -862.660
  H      428.068     -67.949    -857.512
  H      429.693     -67.409    -857.861
  H      428.644     -66.432    -856.862

 3  4  5  6  7  8  9  10  11  12  13  23  28  29  30  31  32 0
 6-311+G(2d,p)
 ****
 33  34 0
 6-311+G(2d,p)
 ****
 1  2  14  15  16  17  18  19  20  21  22  24  25  26  27 0
 3-21G
 ****
 35  36  37  38  39  40  41  42  43  44  45 0
 3-21G
 ****


