%nproc=1
%NoSave
%Mem=1900MB
#P OB98/GEN NMR

erre ene a

0 1
  C       20.395      36.272      -0.848
  O       21.003      35.077      -1.283
  H       20.421      36.996      -1.667
  H       20.954      36.680      -0.001
  H       19.354      36.110      -0.556
  P       20.707      33.726      -0.480
  C       20.967      32.909       1.955
  O       21.385      33.848       0.972
  C       21.697      33.118       3.282
  O       23.108      32.865       3.104
  C       21.568      34.551       3.805
  O       20.411      34.789       4.589
  C       22.836      34.698       4.641
  O       22.626      34.253       5.992
  C       23.840      33.786       3.926
  N       28.740      34.929       3.016
  C       28.194      34.241       4.084
  N       29.064      33.845       5.039
  N       26.917      33.988       4.200
  C       26.163      34.532       3.218
  C       26.588      35.249       2.122
  C       28.012      35.461       1.962
  O       28.546      36.048       1.027
  N       25.530      35.679       1.357
  C       24.468      35.296       2.039
  N       24.802      34.529       3.131
  O       21.645      32.646      -1.208
  O       19.279      33.271      -0.485
  H       22.380      33.308       5.964
  H       21.224      31.768      -1.168
  H       29.733      35.068       2.967
  H       23.441      35.506       1.765
  H       24.416      33.186       4.642
  H       23.146      35.744       4.700
  H       30.040      34.088       5.044
  H       21.618      35.270       2.981
  H       28.683      33.507       5.926
  H       21.331      32.389       4.016
  H       21.192      31.919       1.556
  H       19.885      32.967       2.101
  P       19.776      36.252       4.694
  C       20.469      38.523       5.814
  O       20.746      37.160       5.577
  O       18.511      36.029       5.646
  O       19.396      36.881       3.393
  H       17.693      35.948       5.118
  H       21.241      38.943       6.425
  H       19.528      38.614       6.315
  H       20.428      39.046       4.881

 6  7  8  9  10  11  12  13  14  15  26  29  33  34 0
 6-311+G(2d,p)
 ****
 36  38  39  40  41 0
 6-311+G(2d,p)
 ****
 1  2  3  4  5  16  17  18  19  20  21  22  23  24  25 0
 3-21G
 ****
 27  28  30  31  32  35  37  42  43  44  45  46  47 0
 3-21G
 ****
 48  49 0
 3-21G
 ****


