%nproc=1
%NoSave
%Mem=1900MB
#P OB98/GEN NMR

erre ene a

0 1
  C      -67.858    -242.852      17.542
  O      -67.402    -244.083      17.016
  H      -67.837    -242.907      18.634
  H      -68.889    -242.680      17.220
  H      -67.221    -242.025      17.215
  P      -66.971    -244.109      15.472
  C      -68.197    -243.731      13.213
  O      -68.321    -243.908      14.617
  C      -69.349    -244.427      12.484
  O      -69.217    -245.871      12.679
  C      -70.747    -244.016      12.980
  O      -71.646    -243.984      11.866
  C      -71.146    -245.182      13.871
  O      -72.556    -245.297      14.019
  C      -70.507    -246.346      13.117
  N      -72.949    -250.508      14.508
  C      -73.219    -249.603      13.501
  N      -74.348    -249.796      12.786
  N      -72.447    -248.585      13.221
  C      -71.338    -248.519      13.997
  C      -70.958    -249.344      15.026
  C      -71.831    -250.459      15.343
  O      -71.655    -251.282      16.235
  N      -69.797    -248.901      15.611
  C      -69.484    -247.797      14.947
  N      -70.393    -247.525      13.959
  O      -66.603    -245.652      15.238
  O      -65.844    -243.202      15.107
  H      -72.926    -245.637      13.179
  H      -65.639    -245.781      15.347
  H      -73.584    -251.264      14.697
  H      -68.639    -247.163      15.155
  H      -71.083    -246.641      12.231
  H      -70.699    -245.066      14.865
  H      -74.976    -250.573      12.927
  H      -70.771    -243.053      13.504
  H      -74.540    -249.163      12.017
  H      -69.249    -244.238      11.408
  H      -67.248    -244.163      12.878
  H      -68.195    -242.659      12.983
  P      -72.056    -242.549      11.271
  C      -73.581    -240.555      11.972
  O      -73.116    -241.865      12.264
  O      -72.946    -242.929       9.996
  O      -70.888    -241.693      10.893
  H      -72.809    -242.270       9.289
  H      -74.276    -240.247      12.725
  H      -74.065    -240.553      11.018
  H      -72.752    -239.878      11.954

 6  7  8  9  10  11  12  13  14  15  26  29  33  34 0
 6-311+G(2d,p)
 ****
 36  38  39  40  41 0
 6-311+G(2d,p)
 ****
 1  2  3  4  5  16  17  18  19  20  21  22  23  24  25 0
 3-21G
 ****
 27  28  30  31  32  35  37  42  43  44  45  46  47 0
 3-21G
 ****
 48  49 0
 3-21G
 ****


