%nproc=1
%NoSave
%Mem=1900MB
#P OB98/GEN NMR

erre ene a

0 1
  C     -165.593    -482.880     495.747
  O     -166.861    -482.801     496.369
  H     -165.125    -483.828     496.025
  H     -164.946    -482.063     496.071
  H     -165.708    -482.857     494.661
  P     -167.629    -481.391     496.338
  C     -167.310    -479.216     497.693
  O     -166.681    -480.367     497.146
  C     -166.286    -478.243     498.283
  O     -165.547    -478.869     499.354
  C     -165.225    -477.789     497.295
  O     -165.705    -476.979     496.245
  C     -164.148    -477.241     498.223
  O     -164.419    -475.908     498.642
  C     -164.264    -478.209     499.423
  N     -163.166    -479.174     499.470
  C     -161.919    -478.659     499.830
  O     -161.720    -477.467     500.083
  N     -160.894    -479.560     499.867
  C     -160.978    -480.882     499.539
  O     -160.011    -481.640     499.575
  C     -162.312    -481.361     499.127
  C     -163.332    -480.495     499.116
  O     -169.047    -481.414     496.832
  O     -167.480    -480.900     494.823
  H     -163.691    -475.643     499.236
  H     -168.114    -480.171     494.620
  H     -159.986    -479.217     500.141
  H     -162.409    -482.402     498.848
  H     -164.320    -480.825     498.813
  H     -164.260    -477.648     500.369
  H     -163.162    -477.242     497.751
  H     -164.796    -478.678     496.814
  H     -166.832    -477.392     498.707
  H     -167.989    -479.554     498.487
  H     -167.900    -478.717     496.913
  P     -165.045    -476.922     494.793
  C     -163.720    -475.170     493.381
  O     -164.283    -475.517     494.636
  O     -165.886    -477.395     493.653
  O     -163.816    -477.960     494.957
  H     -163.692    -478.403     494.087
  H     -163.254    -474.209     493.452
  H     -164.492    -475.138     492.641
  H     -162.990    -475.901     493.103

 6  7  8  9  10  11  12  13  14  15  16  26  31  32  33  34  35 0
 6-311+G(2d,p)
 ****
 36  37 0
 6-311+G(2d,p)
 ****
 1  2  3  4  5  17  18  19  20  21  22  23  24  25 0
 3-21G
 ****
 27  28  29  30  38  39  40  41  42  43  44  45 0
 3-21G
 ****


