%nproc=1
%NoSave
%Mem=1900MB
#P OB98/GEN NMR

erre ene a

0 1
  C     -216.801    -260.320     185.677
  O     -216.534    -261.127     184.523
  P     -215.183    -260.832     183.708
  C     -216.428    -259.301     182.019
  O     -215.570    -260.416     182.205
  C     -217.341    -259.493     180.799
  O     -216.610    -259.267     179.564
  C     -217.944    -260.902     180.704
  O     -219.222    -260.802     180.060
  C     -216.984    -261.609     179.768
  O     -217.567    -262.781     179.199
  C     -216.676    -260.481     178.783
  N     -214.695    -261.611     174.286
  C     -216.017    -261.513     174.677
  N     -216.947    -261.710     173.719
  N     -216.393    -261.239     175.902
  C     -215.352    -261.030     176.745
  C     -214.005    -261.107     176.478
  C     -213.605    -261.432     175.125
  O     -212.447    -261.548     174.724
  N     -213.258    -260.856     177.602
  C     -214.154    -260.634     178.544
  N     -215.433    -260.695     178.065
  O     -214.541    -262.292     183.537
  O     -214.242    -259.907     184.409
  H     -218.329    -262.490     178.652
  H     -213.761    -262.375     184.109
  H     -214.464    -261.833     173.331
  H     -213.930    -260.428     179.580
  H     -217.468    -260.361     178.029
  H     -216.083    -261.907     180.314
  H     -216.727    -261.869     172.748
  H     -218.062    -261.421     181.660
  H     -217.923    -261.601     173.970
  H     -218.149    -258.754     180.844
  H     -215.841    -258.389     181.889
  H     -217.014    -259.150     182.931
  P     -220.466    -260.380     180.979
  C     -221.771    -262.625     180.856
  O     -221.708    -261.263     180.479
  O     -220.827    -258.905     180.470
  O     -220.199    -260.421     182.447
  H     -221.277    -258.404     181.175
  H     -222.508    -262.736     181.654
  H     -220.800    -262.999     181.199
  H     -222.090    -263.214     179.992
  H     -217.727    -260.624     186.118
  H     -216.865    -259.292     185.386
  H     -216.010    -260.441     186.388

 3  4  5  6  7  8  9  10  11  12  23  26  30  31 0
 6-311+G(2d,p)
 ****
 33  35  36  37  38 0
 6-311+G(2d,p)
 ****
 1  2  13  14  15  16  17  18  19  20  21  22  24  25 0
 3-21G
 ****
 27  28  29  32  34  39  40  41  42  43  44  45  46  47  48  49 0
 3-21G
 ****


