%nproc=1
%NoSave
%Mem=1900MB
#P OB98/GEN NMR

erre ene a

0 1
  C       68.879    -189.559    -247.975
  O       67.547    -189.942    -248.259
  H       69.320    -189.126    -248.875
  H       69.463    -190.437    -247.685
  H       68.905    -188.813    -247.174
  P       66.630    -190.389    -247.022
  C       65.764    -192.428    -248.387
  O       65.432    -191.269    -247.634
  C       64.866    -192.528    -249.622
  O       65.082    -191.350    -250.449
  C       65.139    -193.757    -250.496
  O       63.888    -194.221    -251.031
  C       65.989    -193.198    -251.624
  O       65.949    -193.974    -252.816
  C       65.362    -191.808    -251.788
  N       66.247    -190.875    -252.486
  C       66.018    -190.668    -253.845
  O       65.073    -191.148    -254.477
  N       66.930    -189.868    -254.486
  C       68.034    -189.291    -253.923
  O       68.827    -188.603    -254.552
  C       68.229    -189.553    -252.492
  C       67.342    -190.324    -251.850
  O       65.906    -189.024    -246.598
  O       67.354    -191.029    -245.884
  H       66.441    -188.544    -245.938
  H       66.471    -194.788    -252.652
  H       66.776    -189.711    -255.470
  H       69.100    -189.121    -252.008
  H       67.469    -190.552    -250.793
  H       64.408    -191.876    -252.320
  H       67.030    -193.123    -251.304
  H       65.640    -194.579    -249.973
  H       63.815    -192.504    -249.296
  H       65.618    -193.319    -247.765
  H       66.819    -192.373    -248.688
  P       63.759    -195.789    -251.363
  C       62.804    -195.557    -253.796
  O       62.571    -195.905    -252.436
  O       63.128    -196.337    -250.002
  O       65.061    -196.408    -251.759
  H       62.507    -195.714    -249.590
  H       61.905    -195.696    -254.359
  H       63.576    -196.181    -254.197
  H       63.107    -194.532    -253.855

 6  7  8  9  10  11  12  13  14  15  16  27  31  32  33  34  35 0
 6-311+G(2d,p)
 ****
 36  37 0
 6-311+G(2d,p)
 ****
 1  2  3  4  5  17  18  19  20  21  22  23  24  25 0
 3-21G
 ****
 26  28  29  30  38  39  40  41  42  43  44  45 0
 3-21G
 ****


