%nproc=1
%NoSave
%Mem=1900MB
#P OB98/GEN NMR

erre ene a

0 1
  C      542.675     373.702    -786.292
  O      542.397     372.355    -786.618
  P      542.529     371.760    -788.101
  C      544.322     369.992    -787.485
  O      544.003     371.130    -788.250
  C      544.486     368.721    -788.331
  O      545.639     368.854    -789.191
  C      544.768     367.513    -787.423
  O      543.704     366.823    -786.802
  C      545.720     366.636    -788.226
  O      545.052     365.565    -788.895
  C      546.323     367.595    -789.247
  N      550.985     366.759    -791.079
  C      549.758     366.606    -791.699
  N      549.787     365.967    -792.902
  N      548.638     367.011    -791.190
  C      548.760     367.550    -789.954
  C      549.905     367.766    -789.233
  C      551.168     367.350    -789.828
  O      552.257     367.387    -789.267
  N      549.652     368.250    -787.980
  C      548.335     368.299    -787.916
  N      547.746     367.842    -789.068
  O      541.976     372.595    -789.208
  O      541.612     370.437    -787.989
  H      545.731     364.987    -789.286
  H      541.182     370.298    -788.855
  H      551.823     366.353    -791.483
  H      547.768     368.616    -787.052
  H      546.199     367.210    -790.265
  H      546.469     366.172    -787.569
  H      550.614     365.513    -793.241
  H      545.362     367.882    -786.581
  H      548.892     365.689    -793.299
  H      543.636     368.584    -789.000
  H      543.540     369.860    -786.738
  H      545.262     370.168    -786.940
  P      543.327     366.851    -785.241
  C      541.051     368.014    -785.200
  O      542.446     368.146    -784.960
  O      544.719     367.199    -784.517
  O      542.762     365.569    -784.718
  H      544.692     366.896    -783.584
  H      540.594     369.002    -785.272
  H      540.578     367.471    -784.363
  H      540.857     367.469    -786.135
  H      542.515     373.856    -785.245
  H      542.027     374.345    -786.850
  H      543.693     373.925    -786.533

 3  4  5  6  7  8  9  10  11  12  23  26  30  31 0
 6-311+G(2d,p)
 ****
 33  35  36  37  38 0
 6-311+G(2d,p)
 ****
 1  2  13  14  15  16  17  18  19  20  21  22  24  25 0
 3-21G
 ****
 27  28  29  32  34  39  40  41  42  43  44  45  46  47  48  49 0
 3-21G
 ****


