%nproc=1
%NoSave
%Mem=1900MB
#P OB98/GEN NMR

erre ene a

0 1
  C       52.084     739.970     399.489
  O       52.657     740.903     400.406
  P       54.160     740.631     400.890
  C       56.135     742.128     401.723
  O       54.842     742.060     401.141
  C       56.774     743.479     401.410
  O       56.897     743.671     399.984
  C       55.963     744.675     401.919
  O       56.156     744.875     403.306
  C       56.530     745.803     401.056
  O       57.736     746.326     401.594
  C       56.801     745.084     399.721
  N       55.791     745.375     398.714
  C       56.089     746.403     397.818
  O       57.131     747.044     397.880
  N       55.129     746.686     396.880
  C       53.906     746.092     396.775
  O       53.078     746.429     395.940
  C       53.638     745.038     397.759
  C       54.562     744.741     398.670
  O       54.902     740.096     399.568
  O       54.292     739.680     402.023
  H       58.393     745.613     401.585
  H       55.571     739.422     399.818
  H       55.350     747.396     396.207
  H       52.668     744.540     397.707
  H       54.363     743.962     399.411
  H       57.770     745.383     399.325
  H       55.827     746.640     400.979
  H       54.910     744.525     401.689
  H       57.787     743.480     401.842
  H       56.756     741.313     401.318
  H       56.049     741.986     402.816
  P       55.444     746.157     403.963
  C       54.801     746.734     406.432
  O       55.162     745.734     405.497
  O       54.001     746.082     403.236
  O       56.181     747.425     403.742
  H       53.727     745.167     403.060
  H       54.164     747.497     405.973
  H       55.708     747.192     406.839
  H       54.245     746.246     407.245
  H       51.085     740.271     399.252
  H       52.068     738.997     399.934
  H       52.670     739.943     398.594

 3  4  5  6  7  8  9  10  11  12  13  23  28  29  30  31  32 0
 6-311+G(2d,p)
 ****
 33  34 0
 6-311+G(2d,p)
 ****
 1  2  14  15  16  17  18  19  20  21  22  24  25  26 0
 3-21G
 ****
 27  35  36  37  38  39  40  41  42  43  44  45 0
 3-21G
 ****


