%nproc=1
%NoSave
%Mem=1900MB
#P OB98/GEN NMR

erre ene a

0 1
  C     -142.439     -51.206     -26.266
  O     -142.440     -51.894     -27.502
  H     -142.232     -50.144     -26.426
  H     -143.426     -51.308     -25.804
  H     -141.688     -51.635     -25.595
  P     -141.085     -51.840     -28.361
  C     -140.363     -54.120     -27.335
  O     -140.037     -52.753     -27.556
  C     -139.290     -55.000     -27.974
  O     -137.981     -54.629     -27.480
  C     -139.446     -56.485     -27.657
  O     -140.392     -57.122     -28.499
  C     -138.037     -56.982     -27.935
  O     -137.829     -57.088     -29.357
  C     -137.185     -55.839     -27.359
  N     -133.298     -56.189     -24.041
  C     -133.329     -55.933     -25.366
  N     -134.408     -55.835     -26.174
  C     -135.541     -56.022     -25.479
  C     -135.664     -56.283     -24.120
  C     -134.469     -56.372     -23.387
  N     -134.427     -56.661     -22.042
  N     -136.994     -56.433     -23.774
  C     -137.658     -56.249     -24.897
  N     -136.825     -56.029     -25.963
  O     -140.534     -50.357     -28.110
  O     -141.215     -52.177     -29.810
  H     -136.885     -57.302     -29.492
  H     -139.836     -50.139     -28.759
  H     -132.363     -55.793     -25.847
  H     -138.738     -56.275     -24.993
  H     -136.251     -55.682     -27.916
  H     -137.844     -57.968     -27.506
  H     -139.678     -56.648     -26.599
  H     -139.299     -54.826     -29.058
  H     -141.334     -54.334     -27.792
  H     -133.523     -56.850     -21.637
  H     -135.283     -56.941     -21.577
  H     -140.419     -54.313     -26.260
  P     -140.871     -58.599     -28.086
  C     -143.080     -57.716     -27.031
  O     -141.860     -58.421     -26.829
  O     -139.556     -59.235     -27.433
  O     -141.396     -59.421     -29.216
  H     -139.516     -60.195     -27.590
  H     -143.627     -57.679     -26.112
  H     -143.664     -58.219     -27.774
  H     -142.866     -56.720     -27.359

 6  7  8  9  10  11  12  13  14  15  25  28  32  33  34  35 0
 6-311+G(2d,p)
 ****
 36  39  40 0
 6-311+G(2d,p)
 ****
 1  2  3  4  5  16  17  18  19  20  21  22  23  24 0
 3-21G
 ****
 26  27  29  30  31  37  38  41  42  43  44  45  46  47 0
 3-21G
 ****
 48 0
 3-21G
 ****


