%nproc=1
%NoSave
%Mem=1900MB
#P OB98/GEN NMR

erre ene a

0 1
  C       89.388      69.025      -7.048
  O       90.508      69.187      -6.175
  P       91.959      69.205      -6.859
  C       92.885      67.683      -4.976
  O       92.771      67.908      -6.374
  C       94.259      67.113      -4.600
  O       94.365      65.717      -4.987
  C       95.427      67.854      -5.254
  O       96.520      67.830      -4.331
  C       95.771      66.972      -6.439
  O       97.100      67.214      -6.894
  C       95.522      65.580      -5.837
  N       95.329      64.543      -6.849
  C       96.340      63.588      -6.980
  O       97.372      63.678      -6.311
  N       96.181      62.575      -7.894
  C       95.129      62.552      -8.650
  N       95.030      61.525      -9.538
  C       94.064      63.572      -8.587
  C       94.229      64.525      -7.671
  O       92.702      70.416      -6.121
  O       91.921      69.412      -8.340
  H       97.718      66.995      -6.163
  H       93.108      71.010      -6.779
  H       93.214      63.523      -9.252
  H       93.501      65.314      -7.548
  H       96.367      65.278      -5.205
  H       95.077      67.163      -7.267
  H       95.192      68.888      -5.522
  H       94.358      67.158      -3.509
  H       95.777      60.841      -9.546
  H       92.109      66.987      -4.649
  H       94.256      61.409     -10.175
  H       92.692      68.623      -4.448
  P       96.547      68.917      -3.155
  C       98.407      70.213      -4.362
  O       97.090      70.259      -3.848
  O       97.834      68.453      -2.317
  O       95.346      69.049      -2.279
  H       97.921      69.001      -1.516
  H       98.600      71.138      -4.911
  H       98.521      69.367      -5.047
  H       99.126      70.135      -3.541
  H       88.485      69.029      -6.474
  H       89.474      68.095      -7.570
  H       89.366      69.829      -7.753

 3  4  5  6  7  8  9  10  11  12  13  21  23  27  28  29  30  32 0
 6-311+G(2d,p)
 ****
 34  35 0
 6-311+G(2d,p)
 ****
 1  2  14  15  16  17  18  19  20  22  24  25  26 0
 3-21G
 ****
 31  33  36  37  38  39  40  41  42  43  44  45  46 0
 3-21G
 ****


