%nproc=1
%NoSave
%Mem=1900MB
#P OB98/GEN NMR

erre ene a

0 1
  C       11.181     -77.265    -268.072
  O       12.047     -77.693    -267.040
  H       11.211     -78.000    -268.879
  H       11.514     -76.300    -268.466
  H       10.154     -77.185    -267.709
  P       12.120     -76.841    -265.683
  C       13.203     -74.752    -266.717
  O       12.042     -75.294    -266.106
  C       13.373     -73.282    -266.341
  O       12.325     -72.514    -266.988
  C       13.291     -73.016    -264.833
  O       14.227     -71.995    -264.499
  C       11.876     -72.493    -264.645
  O       11.762     -71.650    -263.499
  C       11.634     -71.763    -265.967
  N        7.594     -68.736    -265.750
  C        8.911     -68.490    -265.426
  N        9.201     -67.256    -264.947
  N        9.869     -69.370    -265.555
  C        9.443     -70.555    -266.057
  C        8.168     -70.925    -266.412
  C        7.112     -69.941    -266.254
  O        5.930     -70.111    -266.510
  N        8.134     -72.223    -266.857
  C        9.383     -72.637    -266.765
  N       10.215     -71.667    -266.274
  O       13.258     -77.178    -264.772
  O       10.705     -77.104    -264.987
  H       10.938     -71.124    -263.610
  H       10.785     -77.773    -264.282
  H        6.898     -68.025    -265.621
  H        9.739     -73.627    -267.030
  H       12.030     -70.740    -265.957
  H       11.184     -73.333    -264.526
  H        8.517     -66.522    -264.839
  H       13.481     -73.912    -264.234
  H       10.165     -67.045    -264.726
  H       14.325     -72.924    -266.749
  H       13.093     -74.845    -267.804
  H       14.083     -75.323    -266.403
  P       15.651     -72.420    -263.894
  C       15.261     -72.226    -261.352
  O       15.403     -73.107    -262.463
  O       16.707     -71.369    -263.923
  O       16.064     -73.673    -264.814
  H       17.038     -73.714    -264.875
  H       15.102     -72.798    -260.462
  H       14.425     -71.579    -261.515
  H       16.150     -71.640    -261.245

 6  7  8  9  10  11  12  13  14  15  26  29  33  34 0
 6-311+G(2d,p)
 ****
 36  38  39  40  41 0
 6-311+G(2d,p)
 ****
 1  2  3  4  5  16  17  18  19  20  21  22  23  24  25 0
 3-21G
 ****
 27  28  30  31  32  35  37  42  43  44  45  46  47 0
 3-21G
 ****
 48  49 0
 3-21G
 ****


