%nproc=1
%NoSave
%Mem=1900MB
#P OB98/GEN NMR

erre ene a

0 1
  C      635.103    -143.164     510.109
  O      636.117    -143.674     509.271
  H      635.480    -142.267     510.612
  H      634.836    -143.899     510.872
  H      634.218    -142.891     509.529
  P      635.768    -144.895     508.295
  C      636.781    -147.088     509.196
  O      635.662    -146.208     509.207
  C      636.365    -148.452     508.629
  O      635.761    -149.249     509.670
  C      635.334    -148.364     507.518
  O      635.915    -147.939     506.298
  C      634.801    -149.789     507.513
  O      635.661    -150.660     506.779
  C      634.823    -150.135     509.021
  N      633.497    -150.047     509.623
  C      633.095    -151.135     510.404
  O      633.797    -152.125     510.609
  N      631.826    -151.065     510.902
  C      630.898    -150.116     510.591
  O      629.700    -150.238     510.850
  C      631.391    -148.967     509.821
  C      632.651    -148.993     509.376
  O      636.638    -145.033     507.093
  O      634.237    -144.623     507.884
  H      634.211    -144.238     506.986
  H      636.532    -150.614     507.207
  H      631.513    -151.880     511.434
  H      630.695    -148.162     509.609
  H      633.028    -148.174     508.773
  H      635.207    -151.161     509.165
  H      633.810    -149.842     507.070
  H      634.525    -147.686     507.813
  H      637.276    -148.967     508.283
  H      637.138    -147.217     510.225
  H      637.579    -146.643     508.592
  P      634.996    -147.288     505.147
  C      635.675    -148.496     502.979
  O      634.723    -148.416     504.035
  O      635.484    -145.981     504.617
  O      633.571    -147.128     505.844
  H      633.244    -146.217     505.697
  H      635.393    -149.276     502.303
  H      636.642    -148.708     503.386
  H      635.705    -147.564     502.455

 6  7  8  9  10  11  12  13  14  15  16  27  31  32  33  34  35 0
 6-311+G(2d,p)
 ****
 36  37 0
 6-311+G(2d,p)
 ****
 1  2  3  4  5  17  18  19  20  21  22  23  24  25 0
 3-21G
 ****
 26  28  29  30  38  39  40  41  42  43  44  45 0
 3-21G
 ****


