%nproc=1
%NoSave
%Mem=1900MB
#P OB98/GEN NMR

erre ene a

0 1
  C       15.170      66.241     401.657
  O       15.068      67.653     401.702
  P       13.911      68.416     400.896
  C       15.356      68.554     398.759
  O       14.157      68.049     399.351
  C       15.503      68.066     397.321
  O       15.587      66.617     397.281
  C       14.342      68.433     396.413
  O       14.423      69.790     396.027
  C       14.523      67.433     395.276
  O       15.502      67.897     394.334
  C       15.037      66.184     396.026
  N       13.987      65.186     396.214
  C       13.804      64.283     395.161
  O       14.481      64.378     394.139
  N       12.820      63.323     395.273
  C       12.079      63.290     396.337
  N       11.117      62.321     396.389
  C       12.218      64.235     397.456
  C       13.182      65.153     397.329
  O       13.773      69.871     401.195
  O       12.596      67.566     401.260
  H       16.366      67.872     394.801
  H       12.296      67.741     402.182
  H       11.565      64.177     398.315
  H       13.352      65.895     398.099
  H       15.861      65.718     395.469
  H       13.594      67.267     394.719
  H       13.389      68.231     396.928
  H       16.443      68.477     396.915
  H       11.033      61.714     395.584
  H       16.207      68.198     399.356
  H       10.462      62.228     397.149
  H       15.341      69.647     398.798
  P       13.127      70.728     396.121
  C       12.473      70.277     393.676
  O       12.065      70.211     395.037
  O       13.392      72.197     396.099
  O       12.447      70.292     397.511
  H       12.169      71.096     397.996
  H       11.841      69.617     393.085
  H       13.521      69.969     393.566
  H       12.357      71.299     393.310
  H       15.999      65.924     402.254
  H       15.318      65.926     400.645
  H       14.269      65.806     402.037

 3  4  5  6  7  8  9  10  11  12  13  23  27  28  29  30  32 0
 6-311+G(2d,p)
 ****
 34  35 0
 6-311+G(2d,p)
 ****
 1  2  14  15  16  17  18  19  20  21  22  24  25  26 0
 3-21G
 ****
 31  33  36  37  38  39  40  41  42  43  44  45  46 0
 3-21G
 ****


