%nproc=1
%NoSave
%Mem=1900MB
#P OB98/GEN NMR

erre ene a

0 1
  C     -121.750      26.017      43.253
  O     -123.092      26.026      43.698
  H     -121.298      25.058      43.520
  H     -121.184      26.820      43.738
  H     -121.714      26.135      42.167
  P     -123.929      27.371      43.433
  C     -126.458      27.922      43.410
  O     -125.464      26.913      43.523
  C     -127.787      27.430      43.979
  O     -128.439      26.558      43.039
  C     -127.662      26.640      45.278
  O     -127.578      27.520      46.388
  C     -128.971      25.869      45.275
  O     -130.033      26.718      45.753
  C     -129.181      25.559      43.782
  N     -129.683      21.919      40.198
  C     -130.385      23.049      40.429
  N     -130.231      23.941      41.433
  C     -129.225      23.580      42.244
  C     -128.426      22.451      42.132
  C     -128.679      21.596      41.048
  N     -127.965      20.442      40.813
  N     -127.497      22.404      43.153
  C     -127.694      23.518      43.831
  N     -128.753      24.243      43.347
  O     -123.543      28.144      42.218
  O     -123.714      28.141      44.822
  H     -130.822      26.152      45.861
  H     -123.771      27.519      45.569
  H     -131.176      23.265      39.717
  H     -127.090      23.851      44.668
  H     -130.239      25.655      43.493
  H     -128.947      24.993      45.927
  H     -126.827      25.930      45.244
  H     -128.437      28.305      44.119
  H     -126.587      28.210      42.360
  H     -128.339      19.799      40.134
  H     -127.310      20.143      41.519
  H     -126.107      28.798      43.966
  P     -126.845      27.076      47.744
  C     -126.896      28.038      50.129
  O     -127.027      28.320      48.739
  O     -125.448      26.592      47.562
  O     -127.811      25.968      48.373
  H     -127.330      25.452      49.049
  H     -127.036      28.938      50.690
  H     -125.920      27.645      50.323
  H     -127.633      27.319      50.418

 6  7  8  9  10  11  12  13  14  15  25  28  32  33  34  35 0
 6-311+G(2d,p)
 ****
 36  39  40 0
 6-311+G(2d,p)
 ****
 1  2  3  4  5  16  17  18  19  20  21  22  23  24 0
 3-21G
 ****
 26  27  29  30  31  37  38  41  42  43  44  45  46  47 0
 3-21G
 ****
 48 0
 3-21G
 ****


