%nproc=1
%NoSave
%Mem=1900MB
#P OB98/GEN NMR

erre ene a

0 1
  C      181.039    -458.273     369.354
  O      181.055    -459.046     370.535
  H      180.056    -458.367     368.885
  H      181.796    -458.644     368.657
  H      181.224    -457.220     369.579
  P      182.386    -458.975     371.430
  C      183.338    -461.371     371.145
  O      183.429    -460.003     370.773
  C      184.185    -462.244     370.221
  O      183.537    -462.309     368.911
  C      185.617    -461.728     369.999
  O      186.483    -462.862     369.873
  C      185.524    -461.048     368.644
  O      186.795    -460.926     368.005
  C      184.549    -461.986     367.934
  N      183.459    -462.809     363.090
  C      184.003    -463.655     364.048
  N      184.304    -464.905     363.651
  N      184.230    -463.292     365.278
  C      183.850    -462.015     365.546
  C      183.309    -461.086     364.695
  C      183.086    -461.487     363.321
  O      182.624    -460.783     362.430
  N      183.088    -459.894     365.340
  C      183.498    -460.105     366.580
  N      183.967    -461.378     366.753
  O      181.937    -459.706     372.781
  O      182.915    -457.602     371.686
  H      187.119    -461.827     367.801
  H      181.623    -459.052     373.433
  H      183.314    -463.133     362.152
  H      183.474    -459.379     367.376
  H      185.025    -462.918     367.613
  H      185.099    -460.044     368.751
  H      184.111    -465.268     362.728
  H      185.983    -461.066     370.791
  H      184.662    -465.550     364.346
  H      184.191    -463.263     370.617
  H      182.288    -461.688     371.078
  H      183.678    -461.485     372.181
  P      187.265    -463.363     371.179
  C      189.239    -461.721     370.754
  O      188.244    -462.181     371.654
  O      188.284    -464.446     370.590
  O      186.387    -463.944     372.235
  H      188.490    -465.112     371.271
  H      189.804    -460.938     371.216
  H      188.772    -461.348     369.867
  H      189.892    -462.530     370.500

 6  7  8  9  10  11  12  13  14  15  26  29  33  34 0
 6-311+G(2d,p)
 ****
 36  38  39  40  41 0
 6-311+G(2d,p)
 ****
 1  2  3  4  5  16  17  18  19  20  21  22  23  24  25 0
 3-21G
 ****
 27  28  30  31  32  35  37  42  43  44  45  46  47 0
 3-21G
 ****
 48  49 0
 3-21G
 ****


