%nproc=1
%NoSave
%Mem=1900MB
#P OB98/GEN NMR

erre ene a

0 1
  C      -25.543      -7.930    -641.430
  O      -26.008      -6.665    -641.907
  P      -26.236      -6.527    -643.500
  C      -24.847      -5.896    -645.569
  O      -24.872      -6.016    -644.168
  C      -23.686      -6.704    -646.198
  O      -22.395      -6.203    -645.762
  C      -23.745      -8.206    -645.852
  O      -23.229      -8.925    -646.986
  C      -22.742      -8.314    -644.713
  O      -22.303      -9.664    -644.555
  C      -21.672      -7.305    -645.147
  N      -20.815      -6.861    -644.052
  C      -19.546      -7.432    -643.988
  O      -19.211      -8.319    -644.769
  N      -18.691      -7.013    -642.992
  C      -19.092      -6.137    -642.124
  N      -18.199      -5.760    -641.163
  C      -20.451      -5.538    -642.127
  C      -21.246      -5.951    -643.128
  O      -27.228      -5.269    -643.620
  O      -26.836      -7.753    -644.108
  H      -21.912      -9.961    -645.423
  H      -27.990      -5.494    -644.185
  H      -20.753      -4.823    -641.382
  H      -22.248      -5.573    -643.225
  H      -21.026      -7.746    -645.934
  H      -23.205      -8.003    -643.767
  H      -24.746      -8.564    -645.604
  H      -23.728      -6.591    -647.289
  H      -17.284      -6.182    -641.187
  H      -24.716      -4.838    -645.860
  H      -18.404      -5.098    -640.440
  H      -25.806      -6.205    -645.986
  P      -23.954     -10.301    -647.392
  C      -23.605     -12.764    -646.738
  O      -23.087     -11.450    -646.655
  O      -23.456     -10.471    -648.921
  O      -25.437     -10.387    -647.284
  H      -23.896     -11.253    -649.320
  H      -22.860     -13.449    -646.299
  H      -23.772     -13.046    -647.784
  H      -24.529     -12.839    -646.147
  H      -25.433      -7.892    -640.366
  H      -24.598      -8.155    -641.878
  H      -26.250      -8.690    -641.688

 3  4  5  6  7  8  9  10  11  12  13  21  23  27  28  29  30  32 0
 6-311+G(2d,p)
 ****
 34  35 0
 6-311+G(2d,p)
 ****
 1  2  14  15  16  17  18  19  20  22  24  25  26 0
 3-21G
 ****
 31  33  36  37  38  39  40  41  42  43  44  45  46 0
 3-21G
 ****


