%nproc=1
%NoSave
%Mem=1900MB
#P OB98/GEN NMR

erre ene a

0 1
  C      -56.647     -50.227     195.284
  O      -55.719     -50.950     194.502
  H      -56.307     -49.192     195.366
  H      -56.705     -50.658     196.286
  H      -57.636     -50.237     194.816
  P      -56.131     -52.433     194.054
  C      -55.541     -53.220     196.460
  O      -56.485     -53.235     195.400
  C      -55.786     -54.405     197.394
  O      -56.975     -54.130     198.188
  C      -56.017     -55.735     196.666
  O      -55.430     -56.784     197.444
  C      -57.527     -55.882     196.693
  O      -57.979     -57.223     196.562
  C      -57.853     -55.266     198.057
  N      -59.253     -54.863     198.172
  C      -60.174     -55.846     198.519
  O      -59.886     -57.003     198.818
  N      -61.487     -55.452     198.516
  C      -61.957     -54.215     198.185
  O      -63.148     -53.930     198.181
  C      -60.937     -53.223     197.819
  C      -59.653     -53.588     197.826
  O      -54.738     -53.071     193.597
  O      -57.175     -52.514     192.991
  H      -54.582     -52.906     192.648
  H      -58.958     -57.205     196.570
  H      -62.168     -56.152     198.764
  H      -61.273     -52.233     197.539
  H      -58.877     -52.886     197.540
  H      -57.604     -55.966     198.862
  H      -57.974     -55.295     195.883
  H      -55.619     -55.764     195.646
  H      -54.944     -54.483     198.092
  H      -55.647     -52.291     197.028
  H      -54.529     -53.266     196.042
  P      -53.914     -57.190     197.108
  C      -54.347     -59.769     196.945
  O      -54.009     -58.560     196.281
  O      -53.386     -57.630     198.549
  O      -53.146     -56.088     196.459
  H      -54.068     -58.068     199.087
  H      -54.362     -60.572     196.238
  H      -55.313     -59.671     197.394
  H      -53.620     -59.975     197.703

 6  7  8  9  10  11  12  13  14  15  16  27  31  32  33  34  35 0
 6-311+G(2d,p)
 ****
 36  37 0
 6-311+G(2d,p)
 ****
 1  2  3  4  5  17  18  19  20  21  22  23  24  25 0
 3-21G
 ****
 26  28  29  30  38  39  40  41  42  43  44  45 0
 3-21G
 ****


