%nproc=1
%NoSave
%Mem=1900MB
#P OB98/GEN NMR

erre ene a

0 1
  C      229.306     437.315    -177.478
  O      230.681     437.640    -177.522
  H      228.726     438.204    -177.737
  H      229.032     436.997    -176.468
  H      229.078     436.521    -178.195
  P      231.717     436.426    -177.349
  C      233.691     437.673    -176.147
  O      233.173     437.098    -177.332
  C      234.810     438.665    -176.473
  O      235.903     437.944    -177.098
  C      234.381     439.783    -177.426
  O      235.066     440.980    -177.053
  C      234.898     439.308    -178.774
  O      235.078     440.386    -179.689
  C      236.184     438.576    -178.363
  N      236.617     437.605    -179.363
  C      237.998     437.465    -179.548
  O      238.783     438.150    -178.891
  N      238.456     436.585    -180.493
  C      237.612     435.948    -181.242
  N      238.129     435.112    -182.181
  C      236.148     436.099    -181.117
  C      235.726     436.925    -180.161
  O      231.639     435.721    -178.783
  O      231.419     435.522    -176.199
  H      234.207     440.809    -179.848
  H      231.656     436.349    -179.524
  H      235.483     435.553    -181.771
  H      234.668     437.089    -179.992
  H      237.000     439.293    -178.203
  H      234.187     438.602    -179.223
  H      233.304     439.954    -177.419
  H      235.195     439.075    -175.533
  H      239.137     435.055    -182.249
  H      234.079     436.894    -175.482
  H      237.568     434.608    -182.854
  H      232.870     438.181    -175.631
  P      234.223     442.248    -176.559
  C      235.599     444.291    -177.357
  O      235.224     443.466    -176.258
  O      233.212     441.980    -175.499
  O      233.494     442.732    -177.910
  H      232.582     442.991    -177.678
  H      236.264     445.057    -177.017
  H      234.725     444.739    -177.781
  H      236.090     443.696    -178.098

 6  7  8  9  10  11  12  13  14  15  16  26  30  31  32  33  35 0
 6-311+G(2d,p)
 ****
 37  38 0
 6-311+G(2d,p)
 ****
 1  2  3  4  5  17  18  19  20  21  22  23  24  25 0
 3-21G
 ****
 27  28  29  34  36  39  40  41  42  43  44  45  46 0
 3-21G
 ****


