%nproc=1
%NoSave
%Mem=1900MB
#P OB98/GEN NMR

erre ene a

0 1
  C      246.541      39.128     512.474
  O      246.814      39.831     513.668
  H      247.363      39.298     511.773
  H      245.617      39.502     512.026
  H      246.455      38.053     512.658
  P      245.922      39.526     514.966
  C      247.220      37.439     515.749
  O      246.003      37.942     515.212
  C      246.948      36.277     516.714
  O      246.461      35.135     515.947
  C      248.192      35.807     517.488
  O      247.741      35.317     518.760
  C      248.681      34.661     516.625
  O      249.570      33.825     517.330
  C      247.349      34.032     516.206
  N      247.491      33.157     515.043
  C      246.903      31.904     515.133
  O      246.318      31.503     516.141
  N      247.047      31.088     514.043
  C      247.758      31.384     512.917
  O      247.880      30.603     511.981
  C      248.399      32.709     512.890
  C      248.235      33.528     513.936
  O      244.539      40.086     514.949
  O      246.786      40.112     516.183
  H      249.897      33.106     516.747
  H      246.196      40.413     516.898
  H      246.616      30.179     514.091
  H      248.977      32.970     512.018
  H      248.691      34.510     513.949
  H      246.925      33.440     517.026
  H      249.215      35.043     515.748
  H      248.937      36.593     517.623
  H      246.145      36.568     517.397
  H      247.715      38.253     516.285
  H      247.867      37.102     514.933
  P      248.612      35.487     520.100
  C      247.932      37.966     520.342
  O      249.013      37.035     520.254
  O      249.764      34.544     520.207
  O      247.569      35.253     521.293
  H      248.041      34.906     522.077
  H      248.322      38.957     520.441
  H      247.329      37.733     521.195
  H      247.335      37.904     519.456

 6  7  8  9  10  11  12  13  14  15  16  26  31  32  33  34  35 0
 6-311+G(2d,p)
 ****
 36  37 0
 6-311+G(2d,p)
 ****
 1  2  3  4  5  17  18  19  20  21  22  23  24  25 0
 3-21G
 ****
 27  28  29  30  38  39  40  41  42  43  44  45 0
 3-21G
 ****


