%nproc=1
%NoSave
%Mem=1900MB
#P OB98/GEN NMR

erre ene a

0 1
  C     -239.855     166.390       6.605
  O     -239.414     167.747       6.757
  P     -237.884     167.948       7.227
  C     -236.521     167.543       5.051
  O     -237.047     168.497       5.972
  C     -235.835     168.217       3.858
  O     -236.805     169.029       3.146
  C     -234.661     169.136       4.227
  O     -233.654     169.013       3.211
  C     -235.262     170.530       4.104
  O     -234.261     171.526       3.890
  C     -236.217     170.322       2.930
  N     -237.424     174.839       0.995
  C     -236.314     174.047       0.763
  N     -235.392     174.543      -0.092
  N     -236.132     172.880       1.314
  C     -237.155     172.495       2.122
  C     -238.312     173.185       2.426
  C     -238.477     174.504       1.841
  O     -239.409     175.272       2.049
  N     -239.107     172.474       3.285
  C     -238.442     171.356       3.506
  N     -237.242     171.332       2.828
  O     -237.364     166.447       7.421
  O     -237.747     168.741       8.484
  H     -233.754     171.255       3.096
  H     -237.026     166.325       8.330
  H     -237.509     175.747       0.565
  H     -238.758     170.555       4.159
  H     -235.673     170.291       1.978
  H     -235.799     170.778       5.028
  H     -235.499     175.407      -0.596
  H     -234.227     168.944       5.212
  H     -234.593     173.958      -0.310
  H     -235.503     167.433       3.169
  H     -237.333     166.907       4.688
  H     -235.807     166.903       5.580
  P     -232.330     168.197       3.624
  C     -233.214     165.779       3.221
  O     -232.381     166.833       2.778
  O     -232.635     167.724       5.121
  O     -231.064     168.985       3.513
  H     -231.800     167.606       5.613
  H     -233.896     166.100       4.018
  H     -232.584     164.968       3.603
  H     -233.805     165.413       2.378
  H     -240.878     166.380       6.292
  H     -239.763     165.878       7.540
  H     -239.253     165.899       5.869

 3  4  5  6  7  8  9  10  11  12  23  26  30  31  33  0
 6-311+G(2d,p)
 ****
 35  36  37  38 0
 6-311+G(2d,p)
 ****
 1  2  13  14  15  16  17  18  19  20  21  22  24  25  27  28  29 0
 3-21G
 ****
 32  34  39  40  41  42  43  44  45  46  47  48  49 0
 3-21G
 ****


