%nproc=1
%NoSave
%Mem=1900MB
#P OB98/GEN NMR

erre ene a

0 1
  C      703.666     -68.108    -503.925
  O      705.079     -68.351    -503.764
  P      705.990     -68.570    -505.071
  C      706.872     -66.137    -505.473
  O      706.030     -67.198    -505.901
  C      708.008     -65.928    -506.481
  O      707.486     -65.544    -507.767
  C      708.988     -64.827    -506.103
  O      709.892     -65.237    -505.083
  C      709.664     -64.552    -507.437
  O      710.721     -65.497    -507.685
  C      708.505     -64.768    -508.432
  N      707.966     -63.507    -508.945
  C      708.527     -63.025    -510.120
  O      709.474     -63.573    -510.691
  N      707.992     -61.858    -510.603
  C      707.016     -61.112    -510.005
  O      706.593     -60.069    -510.482
  C      706.517     -61.631    -508.722
  C      707.014     -62.782    -508.258
  O      705.047     -69.486    -505.986
  O      707.307     -69.232    -504.839
  H      711.401     -65.332    -507.008
  H      705.597     -70.041    -506.570
  H      708.368     -61.502    -511.472
  H      705.755     -61.058    -508.204
  H      706.650     -63.175    -507.314
  H      708.838     -65.371    -509.286
  H      710.110     -63.558    -507.489
  H      708.436     -63.929    -505.789
  H      708.540     -66.887    -506.601
  H      707.296     -66.385    -504.495
  H      706.268     -65.223    -505.374
  P      710.325     -64.120    -504.012
  C      708.422     -64.541    -502.273
  O      708.971     -63.710    -503.270
  O      710.664     -62.894    -504.981
  O      711.461     -64.557    -503.146
  H      710.094     -62.872    -505.775
  H      709.199     -65.074    -501.713
  H      707.756     -65.269    -502.747
  H      707.841     -63.930    -501.571
  H      703.213     -67.985    -502.963
  H      703.216     -68.939    -504.428
  H      703.521     -67.220    -504.504

 3  4  5  6  7  8  9  10  11  12  13  23  28  29  30  31  32 0
 6-311+G(2d,p)
 ****
 33  34 0
 6-311+G(2d,p)
 ****
 1  2  14  15  16  17  18  19  20  21  22  24  25  26 0
 3-21G
 ****
 27  35  36  37  38  39  40  41  42  43  44  45 0
 3-21G
 ****


