%nproc=1
%NoSave
%Mem=1900MB
#P OB98/GEN NMR

erre ene a

0 1
  C       99.027     229.637    -230.960
  O       99.012     228.426    -231.691
  H       98.496     229.484    -230.018
  H       98.524     230.425    -231.529
  H      100.058     229.934    -230.743
  P       99.760     228.439    -233.110
  C       97.519     227.715    -234.225
  O       98.910     227.477    -234.068
  C       96.835     226.492    -234.848
  O       97.289     226.358    -236.230
  C       97.162     225.167    -234.143
  O       96.044     224.283    -234.321
  C       98.343     224.666    -234.961
  O       98.604     223.309    -234.691
  C       97.855     225.036    -236.357
  N      100.501     222.153    -239.653
  C       99.461     221.863    -238.836
  N       98.803     222.687    -237.996
  C       99.299     223.934    -238.066
  C      100.347     224.380    -238.853
  C      100.963     223.423    -239.678
  N      102.026     223.713    -240.503
  N      100.572     225.730    -238.645
  C       99.676     226.088    -237.749
  N       98.890     225.038    -237.363
  O      101.100     227.610    -232.827
  O      100.047     229.792    -233.671
  H       98.675     223.154    -233.722
  H      101.830     228.222    -232.619
  H       99.119     220.833    -238.861
  H       99.558     227.086    -237.339
  H       97.059     224.364    -236.702
  H       99.255     225.219    -234.705
  H       97.370     225.283    -233.074
  H       95.752     226.669    -234.888
  H       97.386     228.587    -234.876
  H       97.071     227.924    -233.249
  H      102.424     222.966    -241.049
  H      102.395     224.653    -240.519
  P       94.839     224.321    -233.257
  C       95.997     222.593    -231.671
  O       94.848     222.950    -232.424
  O       93.556     224.124    -234.201
  O       94.721     225.574    -232.456
  H       92.781     224.552    -233.788
  H       95.827     221.656    -231.184
  H       96.191     223.347    -230.937
  H       96.840     222.507    -232.325

 6  7  8  9  10  11  12  13  14  15  25  28  32  33  34  35 0
 6-311+G(2d,p)
 ****
 36  37  40 0
 6-311+G(2d,p)
 ****
 1  2  3  4  5  16  17  18  19  20  21  22  23  24 0
 3-21G
 ****
 26  27  29  30  31  38  39 41  42  43  44  45  46  47  48 0
 3-21G
 ****


