%nproc=1
%NoSave
%Mem=1900MB
#P OB98/GEN NMR

erre ene a

0 1
  C       14.821     148.546     -80.282
  O       16.218     148.589     -80.494
  H       14.418     147.617     -80.690
  H       14.627     148.570     -79.206
  H       14.330     149.404     -80.748
  P       16.725     148.865     -81.990
  C       18.921     147.490     -82.143
  O       18.329     148.766     -81.949
  C       20.371     147.495     -81.662
  O       21.119     148.458     -82.457
  C       20.545     147.871     -80.183
  O       21.585     147.062     -79.628
  C       21.021     149.311     -80.245
  O       21.774     149.693     -79.099
  C       21.831     149.303     -81.537
  N       24.376     153.665     -80.942
  C       24.605     152.417     -80.482
  N       23.903     151.294     -80.734
  C       22.911     151.539     -81.607
  C       22.559     152.755     -82.167
  C       23.336     153.863     -81.786
  N       23.070     155.149     -82.195
  N       21.445     152.609     -82.973
  C       21.118     151.336     -82.878
  N       21.973     150.650     -82.062
  O       16.451     150.435     -82.160
  O       16.058     148.062     -83.054
  H       22.155     150.580     -79.252
  H       15.541     150.574     -82.479
  H       25.457     152.307     -79.815
  H       20.263     150.871     -83.348
  H       22.840     148.895     -81.400
  H       20.155     149.981     -80.325
  H       19.632     147.759     -79.587
  H       20.806     146.509     -81.862
  H       18.903     147.247     -83.211
  H       23.614     155.893     -81.786
  H       22.235     155.328     -82.734
  H       18.342     146.735     -81.601
  P       21.146     145.760     -78.801
  C       23.170     145.774     -77.162
  O       22.460     145.082     -78.183
  O       20.703     144.732     -79.944
  O       20.042     146.007     -77.825
  H       19.982     144.160     -79.624
  H       24.015     145.193     -76.859
  H       22.525     145.931     -76.323
  H       23.503     146.719     -77.537

 6  7  8  9  10  11  12  13  14  15  25  28  32  33  34  35 0
 6-311+G(2d,p)
 ****
 36  39  40 0
 6-311+G(2d,p)
 ****
 1  2  3  4  5  16  17  18  19  20  21  22  23  24 0
 3-21G
 ****
 26  27  29  30  31  37  38  41  42  43  44  45  46  47 0
 3-21G
 ****
 48 0
 3-21G
 ****


