%nproc=1
%NoSave
%Mem=1900MB
#P OB98/GEN NMR

erre ene a

0 1
  C      -50.183    -481.926     536.832
  O      -49.568    -483.054     537.475
  P      -48.606    -483.957     536.528
  C      -49.138    -486.306     537.493
  O      -48.197    -485.256     537.377
  C      -49.099    -486.928     538.898
  O      -47.731    -487.211     539.298
  C      -49.719    -486.038     539.978
  O      -50.364    -486.906     540.925
  C      -48.485    -485.388     540.599
  O      -48.735    -484.787     541.859
  C      -47.532    -486.578     540.595
  N      -44.233    -484.469     543.859
  C      -45.556    -484.702     543.939
  N      -46.370    -485.261     543.014
  C      -45.678    -485.619     541.929
  C      -44.315    -485.449     541.706
  C      -43.565    -484.852     542.729
  N      -42.222    -484.588     542.660
  N      -43.965    -485.923     540.444
  C      -45.108    -486.311     539.899
  N      -46.147    -486.204     540.781
  O      -47.265    -483.099     536.428
  O      -49.205    -484.240     535.190
  H      -47.945    -484.288     542.138
  H      -47.231    -482.602     535.589
  H      -46.042    -484.365     544.864
  H      -45.244    -486.645     538.880
  H      -47.788    -487.308     541.355
  H      -48.135    -484.593     539.919
  H      -50.446    -485.322     539.596
  H      -49.637    -487.893     538.855
  H      -48.924    -487.089     536.749
  H      -41.777    -484.153     543.451
  H      -41.697    -484.857     541.827
  H      -50.133    -485.935     537.249
  P      -51.968    -486.956     540.958
  C      -52.048    -486.808     543.525
  O      -52.316    -487.630     542.378
  O      -52.243    -488.223     539.977
  O      -52.686    -485.717     540.573
  H      -51.685    -488.979     540.217
  H      -52.393    -487.326     544.413
  H      -52.565    -485.851     543.429
  H      -50.958    -486.652     543.612
  H      -50.792    -481.401     537.538
  H      -50.791    -482.266     536.020
  H      -49.424    -481.270     536.459

 3  4  5  6  7  8  9  10  11  12  22  25  29  30  31  32 0
 6-311+G(2d,p)
 ****
 33  36  37 0
 6-311+G(2d,p)
 ****
 1  2  13  14  15  16  17  18  19  20  21  23  24  26 0
 3-21G
 ****
 27  28  34  35  38  39  40  41  42  43  44  45  46  47  48 0
 3-21G
 ****


