%nproc=1
%NoSave
%Mem=1900MB
#P OB98/GEN NMR

erre ene a

0 1
  C     -206.765    -449.886    -367.538
  O     -207.323    -451.033    -366.923
  H     -206.153    -449.356    -366.800
  H     -207.564    -449.215    -367.881
  H     -206.132    -450.179    -368.381
  P     -208.311    -451.915    -367.834
  C     -210.413    -451.454    -366.383
  O     -209.778    -451.287    -367.645
  C     -211.925    -451.247    -366.515
  O     -212.617    -451.813    -365.374
  C     -212.354    -449.789    -366.614
  O     -212.244    -449.315    -367.948
  C     -213.797    -449.869    -366.137
  O     -214.664    -450.338    -367.193
  C     -213.704    -450.913    -365.011
  N     -215.939    -449.407    -360.731
  C     -216.485    -449.845    -361.928
  N     -217.840    -449.859    -361.997
  N     -215.785    -450.223    -362.958
  C     -214.447    -450.110    -362.765
  C     -213.779    -449.689    -361.636
  C     -214.569    -449.320    -360.482
  O     -214.135    -449.009    -359.371
  N     -212.416    -449.722    -361.823
  C     -212.264    -450.136    -363.066
  N     -213.470    -450.379    -363.687
  O     -208.400    -453.306    -367.040
  O     -207.873    -452.124    -369.243
  H     -215.584    -450.345    -366.875
  H     -208.432    -454.036    -367.691
  H     -216.524    -449.157    -359.961
  H     -211.319    -450.280    -363.570
  H     -214.616    -451.523    -364.948
  H     -214.175    -448.893    -365.833
  H     -218.411    -449.320    -361.372
  H     -211.775    -449.162    -365.919
  H     -218.241    -450.104    -362.894
  H     -212.256    -451.805    -367.396
  H     -210.006    -450.720    -365.683
  H     -210.213    -452.465    -366.009
  P     -211.889    -447.764    -368.172
  C     -214.183    -447.287    -369.301
  O     -213.272    -446.950    -368.267
  O     -211.340    -447.745    -369.676
  O     -210.880    -447.214    -367.217
  H     -210.369    -447.645    -369.672
  H     -215.049    -446.662    -369.232
  H     -214.474    -448.312    -369.200
  H     -213.713    -447.142    -370.251

 6  7  8  9  10  11  12  13  14  15  26  29  33  34 0
 6-311+G(2d,p)
 ****
 36  38  39  40  41 0
 6-311+G(2d,p)
 ****
 1  2  3  4  5  16  17  18  19  20  21  22  23  24  25 0
 3-21G
 ****
 27  28  30  31  32  35  37  42  43  44  45  46  47 0
 3-21G
 ****
 48  49 0
 3-21G
 ****


