%nproc=1
%NoSave
%Mem=1900MB
#P OB98/GEN NMR

erre ene a

0 1
  C      181.699    -501.125    -300.262
  O      180.881    -502.179    -299.793
  P      179.310    -502.165    -300.100
  C      179.423    -503.774    -302.097
  O      179.107    -502.456    -301.665
  C      178.237    -504.383    -302.847
  O      177.100    -504.513    -301.970
  C      177.745    -503.538    -304.019
  O      178.612    -503.682    -305.131
  C      176.348    -504.111    -304.224
  O      176.394    -505.324    -304.986
  C      175.912    -504.406    -302.779
  N      171.347    -503.558    -300.671
  C      171.874    -504.652    -301.251
  N      173.094    -504.789    -301.836
  C      173.766    -503.625    -301.782
  C      173.340    -502.423    -301.261
  C      172.066    -502.414    -300.652
  N      171.542    -501.320    -299.993
  N      174.306    -501.448    -301.427
  C      175.293    -502.060    -302.062
  N      175.036    -503.392    -302.232
  O      178.573    -500.975    -299.576
  O      178.779    -503.506    -299.414
  H      176.643    -505.081    -305.901
  H      178.122    -503.280    -298.728
  H      171.251    -505.540    -301.252
  H      176.216    -501.585    -302.381
  H      175.385    -505.365    -302.698
  H      175.684    -503.415    -304.753
  H      177.669    -502.497    -303.716
  H      178.525    -505.383    -303.176
  H      179.654    -504.383    -301.220
  H      170.691    -501.471    -299.479
  H      172.173    -500.576    -299.714
  H      180.300    -503.743    -302.743
  P      178.817    -502.459    -306.136
  C      179.981    -500.690    -304.691
  O      178.759    -501.111    -305.273
  O      177.942    -502.465    -307.353
  O      180.357    -502.549    -306.545
  H      180.481    -502.233    -307.462
  H      180.203    -501.300    -303.815
  H      179.885    -499.647    -304.391
  H      180.802    -500.781    -305.420
  H      182.712    -501.301    -299.965
  H      181.361    -500.199    -299.846
  H      181.643    -501.078    -301.329

 3  4  5  6  7  8  9  10  11  12  22  25  29  30  31  32 0
 6-311+G(2d,p)
 ****
 33  36  37 0
 6-311+G(2d,p)
 ****
 1  2  13  14  15  16  17  18  19  20  21  23  24  26 0
 3-21G
 ****
 27  28  34  35  38  39  40  41  42  43  44  45  46  47  48 0
 3-21G
 ****


