%nproc=1
%NoSave
%Mem=1900MB
#P OB98/GEN NMR

erre ene a

0 1
  C      -72.628     -52.608     118.544
  O      -71.467     -51.977     119.085
  P      -71.388     -50.375     119.107
  C      -71.461     -50.756     121.649
  O      -71.042     -49.894     120.601
  C      -70.544     -50.673     122.877
  O      -69.236     -51.235     122.585
  C      -70.319     -49.249     123.406
  O      -70.228     -49.338     124.832
  C      -68.976     -48.889     122.801
  O      -68.356     -47.795     123.464
  C      -68.252     -50.235     122.917
  N      -67.087     -50.320     122.054
  C      -65.889     -49.792     122.542
  O      -65.874     -49.192     123.617
  N      -64.751     -49.932     121.784
  C      -64.838     -50.418     120.584
  N      -63.686     -50.561     119.871
  C      -66.117     -50.816     119.967
  C      -67.183     -50.765     120.758
  O      -72.541     -49.669     118.471
  O      -70.025     -50.074     118.316
  H      -68.824     -46.969     123.219
  H      -70.132     -49.246     117.808
  H      -66.151     -51.137     118.935
  H      -68.165     -51.040     120.402
  H      -67.935     -50.419     123.954
  H      -69.107     -48.615     121.746
  H      -71.123     -48.555     123.138
  H      -70.991     -51.289     123.672
  H      -62.818     -50.259     120.300
  H      -71.476     -51.787     121.281
  H      -63.664     -50.978     118.951
  H      -72.497     -50.516     121.916
  P      -71.337     -48.600     125.727
  C      -72.446     -50.860     126.378
  O      -71.868     -49.649     126.818
  O      -72.579     -48.522     124.709
  O      -70.989     -47.229     126.212
  H      -73.157     -47.777     124.971
  H      -72.487     -51.553     127.224
  H      -71.852     -51.322     125.584
  H      -73.464     -50.681     126.022
  H      -72.518     -53.671     118.606
  H      -72.746     -52.321     117.520
  H      -73.490     -52.306     119.101

 3  4  5  6  7  8  9  10  11  12  13  23  27  28  29  30  32 0
 6-311+G(2d,p)
 ****
 34  35 0
 6-311+G(2d,p)
 ****
 1  2  14  15  16  17  18  19  20  21  22  24  25  26 0
 3-21G
 ****
 31  33  36  37  38  39  40  41  42  43  44  45  46 0
 3-21G
 ****


