%nproc=1
%NoSave
%Mem=1900MB
#P OB98/GEN NMR

erre ene a

0 1
  C      503.618     329.729     622.988
  O      503.616     329.378     621.621
  P      502.883     330.373     620.600
  C      500.739     328.915     620.919
  O      501.306     330.228     620.851
  C      499.298     328.943     620.435
  O      498.517     329.841     621.244
  C      499.114     329.418     619.001
  O      499.496     328.424     618.072
  C      497.625     329.775     618.997
  O      496.848     328.566     618.876
  C      497.443     330.375     620.423
  N      494.872     334.691     619.376
  C      494.556     333.385     619.238
  N      495.287     332.288     619.517
  C      496.496     332.666     619.996
  C      496.980     333.931     620.171
  C      496.123     334.988     619.855
  N      496.464     336.317     619.991
  N      498.284     333.912     620.650
  C      498.558     332.629     620.788
  N      497.506     331.821     620.412
  O      503.098     329.680     619.170
  O      503.396     331.778     620.619
  H      495.905     328.818     618.919
  H      503.193     330.346     618.472
  H      493.537     333.192     618.849
  H      499.501     332.227     621.143
  H      496.503     330.090     620.883
  H      497.343     330.442     618.195
  H      499.711     330.327     618.825
  H      498.881     327.934     620.564
  H      500.768     328.559     621.969
  H      495.842     337.004     619.590
  H      497.433     336.545     620.194
  H      501.359     328.237     620.305
  P      499.686     328.848     616.540
  C      497.306     328.874     615.601
  O      498.337     329.646     616.178
  O      499.485     327.454     615.777
  O      500.973     329.583     616.262
  H      498.687     326.982     616.071
  H      496.437     329.529     615.464
  H      497.023     328.053     616.273
  H      497.616     328.487     614.634
  H      504.138     328.980     623.548
  H      502.610     329.801     623.339
  H      504.107     330.672     623.113

 3  4  5  6  7  8  9  10  11  12  22  25  29  30  31  32 0
 6-311+G(2d,p)
 ****
 33  36  37 0
 6-311+G(2d,p)
 ****
 1  2  13  14  15  16  17  18  19  20  21  23  24  26 0
 3-21G
 ****
 27  28  34  35  38  39  40  41  42  43  44  45  46  47  48 0
 3-21G
 ****


