%nproc=1
%NoSave
%Mem=1900MB
#P OB98/GEN NMR

erre ene a

0 1
  C      637.355     429.128     -26.109
  O      635.922     429.022     -26.166
  P      635.247     427.895     -25.239
  C      632.897     427.516     -24.190
  O      633.691     428.262     -25.103
  C      631.646     428.314     -23.780
  O      631.948     429.221     -22.704
  C      631.074     429.181     -24.892
  O      630.287     428.421     -25.797
  C      630.201     430.140     -24.092
  O      628.927     429.520     -23.804
  C      631.006     430.328     -22.793
  N      630.836     435.326     -23.625
  C      629.854     434.369     -23.760
  N      628.636     434.821     -24.143
  N      630.032     433.094     -23.539
  C      631.303     432.798     -23.124
  C      632.358     433.661     -22.961
  C      632.151     435.060     -23.242
  O      633.000     435.936     -23.174
  N      633.474     432.993     -22.530
  C      633.082     431.733     -22.402
  N      631.768     431.567     -22.765
  O      635.835     428.225     -23.785
  O      635.549     426.497     -25.663
  H      628.481     430.087     -23.139
  H      635.849     427.418     -23.240
  H      630.646     436.295     -23.829
  H      633.698     430.918     -22.052
  H      630.370     430.286     -21.909
  H      629.981     431.072     -24.638
  H      628.403     435.793     -24.266
  H      631.870     429.738     -25.409
  H      627.886     434.134     -24.215
  H      630.892     427.601     -23.428
  H      633.479     427.280     -23.294
  H      632.617     426.563     -24.645
  P      630.845     428.260     -27.303
  C      630.554     426.388     -29.067
  O      630.018     427.043     -27.943
  O      632.313     427.675     -27.084
  O      630.851     429.536     -28.083
  H      632.893     427.949     -27.827
  H      631.630     426.216     -28.962
  H      630.369     426.988     -29.972
  H      630.064     425.421     -29.184
  H      637.681     429.908     -26.765
  H      637.794     428.200     -26.412
  H      637.656     429.355     -25.108

 3  4  5  6  7  8  9  10  11  12  23  26  30  31  33  0
 6-311+G(2d,p)
 ****
 35  36  37  38 0
 6-311+G(2d,p)
 ****
 1  2  13  14  15  16  17  18  19  20  21  22  24  25  27  28  29 0
 3-21G
 ****
 32  34  39  40  41  42  43  44  45  46  47  48  49 0
 3-21G
 ****


