%nproc=1
%NoSave
%Mem=1900MB
#P OB98/GEN NMR

erre ene a

0 1
  C      644.444    -309.624     146.355
  O      645.007    -310.731     147.052
  P      644.227    -312.133     147.011
  C      645.000    -312.842     149.385
  O      645.007    -313.128     147.994
  C      645.826    -313.866     150.169
  O      645.262    -315.193     149.935
  C      647.307    -313.936     149.789
  O      648.043    -314.251     150.973
  C      647.361    -315.092     148.824
  O      648.690    -315.635     148.693
  C      646.345    -316.028     149.471
  N      644.964    -320.928     148.865
  C      645.410    -320.255     149.945
  N      645.756    -318.942     150.026
  C      645.605    -318.333     148.833
  C      645.194    -318.913     147.647
  C      644.861    -320.278     147.681
  N      644.397    -320.975     146.589
  N      645.193    -317.973     146.627
  C      645.602    -316.852     147.189
  N      645.834    -317.012     148.535
  O      644.575    -312.682     145.554
  O      642.754    -312.051     147.227
  H      648.857    -316.207     149.470
  H      643.776    -312.694     144.989
  H      645.494    -320.827     150.870
  H      645.731    -315.908     146.678
  H      646.768    -316.569     150.323
  H      647.046    -314.773     147.825
  H      647.700    -312.993     149.355
  H      645.711    -313.656     151.240
  H      643.963    -312.875     149.742
  H      644.050    -321.904     146.728
  H      644.136    -320.451     145.754
  H      645.400    -311.839     149.549
  P      649.102    -313.174     151.501
  C      651.056    -314.627     150.610
  O      650.490    -313.937     151.714
  O      648.605    -312.869     153.009
  O      649.161    -311.924     150.674
  H      648.865    -311.969     153.254
  H      652.155    -314.587     150.680
  H      650.742    -314.200     149.653
  H      650.748    -315.678     150.646
  H      645.075    -308.768     146.476
  H      643.473    -309.410     146.750
  H      644.361    -309.862     145.315

 3  4  5  6  7  8  9  10  11  12  22  25  29  30  31  32 0
 6-311+G(2d,p)
 ****
 33  36  37 0
 6-311+G(2d,p)
 ****
 1  2  13  14  15  16  17  18  19  20  21  23  24  26 0
 3-21G
 ****
 27  28  34  35  38  39  40  41  42  43  44  45  46  47  48 0
 3-21G
 ****


