%nproc=1
%NoSave
%Mem=1900MB
#P OB98/GEN NMR

erre ene a

0 1
  C     -458.196    -408.586     341.395
  O     -457.682    -409.584     342.259
  P     -457.962    -411.133     341.938
  C     -459.390    -411.574     344.067
  O     -458.211    -411.857     343.350
  C     -459.414    -412.321     345.413
  O     -459.360    -413.742     345.133
  C     -458.227    -412.032     346.324
  O     -458.566    -412.428     347.657
  C     -457.168    -412.963     345.768
  O     -456.127    -413.213     346.707
  C     -458.003    -414.199     345.351
  N     -457.468    -414.818     344.125
  C     -456.221    -415.424     344.218
  O     -455.599    -415.521     345.279
  N     -455.665    -415.839     343.034
  C     -456.216    -415.659     341.798
  O     -455.585    -415.744     340.750
  C     -457.624    -415.239     341.788
  C     -458.177    -414.819     342.931
  O     -456.517    -411.660     341.493
  O     -458.995    -411.387     340.903
  H     -456.532    -413.744     347.440
  H     -456.446    -411.660     340.518
  H     -454.697    -416.148     343.086
  H     -458.147    -415.227     340.840
  H     -459.197    -414.452     342.939
  H     -458.012    -414.959     346.138
  H     -456.713    -412.498     344.887
  H     -457.901    -410.985     346.318
  H     -460.355    -412.112     345.927
  H     -460.261    -411.850     343.460
  H     -459.470    -410.497     344.259
  P     -458.540    -411.318     348.815
  C     -456.887    -412.372     350.472
  O     -458.241    -412.094     350.181
  O     -459.689    -410.372     348.842
  O     -457.152    -410.557     348.538
  H     -457.158    -409.686     348.981
  H     -456.757    -412.403     351.557
  H     -456.221    -411.604     350.062
  H     -456.619    -413.349     350.059
  H     -457.915    -407.620     341.759
  H     -459.263    -408.658     341.362
  H     -457.798    -408.726     340.412

 3  4  5  6  7  8  9  10  11  12  13  23  28  29  30  31  32 0
 6-311+G(2d,p)
 ****
 33  34 0
 6-311+G(2d,p)
 ****
 1  2  14  15  16  17  18  19  20  21  22  24  25  26  27 0
 3-21G
 ****
 35  36  37  38  39  40  41  42  43  44  45 0
 3-21G
 ****


