%nproc=1
%NoSave
%Mem=1900MB
#P OB98/GEN NMR

erre ene a

0 1
  C      191.554    -476.545    -574.426
  O      192.027    -476.706    -573.090
  P      191.943    -478.104    -572.284
  C      193.908    -477.280    -570.817
  O      193.372    -478.364    -571.558
  C      195.444    -477.344    -570.789
  O      195.885    -478.535    -570.069
  C      196.102    -477.363    -572.183
  O      197.298    -476.559    -572.084
  C      196.462    -478.830    -572.347
  O      197.436    -479.096    -573.334
  C      196.885    -479.167    -570.913
  N      197.013    -480.585    -570.589
  C      198.264    -481.052    -570.155
  O      199.236    -480.301    -570.098
  N      198.392    -482.370    -569.812
  C      197.390    -483.183    -569.913
  N      197.573    -484.465    -569.549
  C      196.047    -482.724    -570.375
  C      195.945    -481.457    -570.696
  O      191.475    -479.244    -573.122
  O      190.941    -477.844    -571.069
  H      190.420    -478.647    -570.899
  H      198.212    -478.562    -573.167
  H      195.221    -483.436    -570.435
  H      194.977    -481.042    -571.019
  H      197.861    -478.661    -570.703
  H      195.557    -479.378    -572.627
  H      195.482    -476.972    -572.971
  H      195.805    -476.487    -570.205
  H      198.491    -484.739    -569.219
  H      193.535    -477.350    -569.799
  H      196.842    -485.172    -569.580
  H      193.563    -476.341    -571.271
  P      197.331    -475.093    -572.727
  C      197.623    -473.791    -570.492
  O      196.793    -474.062    -571.617
  O      196.063    -475.159    -573.722
  O      198.547    -474.724    -573.494
  H      196.191    -474.525    -574.455
  H      197.615    -472.692    -570.314
  H      198.646    -474.126    -570.624
  H      197.179    -474.285    -569.629
  H      191.717    -475.536    -574.743
  H      190.508    -476.765    -574.463
  H      192.082    -477.213    -575.074

 3  4  5  6  7  8  9  10  11  12  13  24  27  28  29  30  32 0
 6-311+G(2d,p)
 ****
 34  35 0
 6-311+G(2d,p)
 ****
 1  2  14  15  16  17  18  19  20  21  22  23  25  26 0
 3-21G
 ****
 31  33  36  37  38  39  40  41  42  43  44  45  46 0
 3-21G
 ****


