%nproc=1
%NoSave
%Mem=1900MB
#P OB98/GEN NMR

erre ene a

0 1
  C     -502.305    -910.982    -712.178
  O     -502.570    -909.668    -711.730
  H     -501.531    -911.416    -711.548
  H     -501.946    -910.949    -713.217
  H     -503.213    -911.596    -712.114
  P     -503.809    -908.898    -712.404
  C     -505.109    -908.155    -710.249
  O     -505.016    -909.044    -711.353
  C     -506.530    -908.197    -709.658
  O     -507.472    -907.820    -710.705
  C     -506.940    -909.567    -709.118
  O     -507.753    -909.373    -707.950
  C     -507.796    -910.160    -710.240
  O     -508.697    -911.139    -709.748
  C     -508.449    -908.889    -710.810
  N     -508.890    -909.067    -712.207
  C     -510.198    -908.730    -712.501
  O     -510.958    -908.328    -711.594
  N     -510.673    -908.901    -713.781
  C     -509.904    -909.449    -714.664
  N     -510.423    -909.616    -715.902
  C     -508.508    -909.867    -714.392
  C     -508.073    -909.640    -713.158
  O     -504.211    -909.906    -713.581
  O     -503.499    -907.506    -712.842
  H     -509.373    -910.676    -709.219
  H     -504.182    -910.839    -713.323
  H     -507.910    -910.334    -715.160
  H     -507.062    -909.915    -712.866
  H     -509.331    -908.600    -710.225
  H     -507.154    -910.618    -710.988
  H     -506.095    -910.215    -708.883
  H     -506.604    -907.417    -708.894
  H     -511.384    -909.325    -716.062
  H     -504.884    -907.131    -710.562
  H     -509.928    -910.068    -716.670
  H     -504.382    -908.467    -709.502
  P     -507.096    -909.677    -706.511
  C     -507.732    -907.569    -705.166
  O     -506.693    -908.294    -705.816
  O     -506.061    -910.734    -706.476
  O     -508.391    -910.120    -705.640
  H     -508.110    -910.860    -705.059
  H     -507.331    -906.670    -704.746
  H     -508.153    -908.170    -704.387
  H     -508.493    -907.322    -705.876

 6  7  8  9  10  11  12  13  14  15  16  26  30  31  32  33  35 0
 6-311+G(2d,p)
 ****
 37  38 0
 6-311+G(2d,p)
 ****
 1  2  3  4  5  17  18  19  20  21  22  23  24  25 0
 3-21G
 ****
 27  28  29  34  36  39  40  41  42  43  44  45  46 0
 3-21G
 ****


