%nproc=1
%NoSave
%Mem=1900MB
#P OB98/GEN NMR

erre ene a

0 1
  C     -218.668     151.310     192.023
  O     -219.152     152.384     192.806
  H     -219.248     151.262     191.098
  H     -218.782     150.363     192.556
  H     -217.617     151.470     191.769
  P     -218.517     152.621     194.256
  C     -216.054     152.993     193.555
  O     -216.997     152.121     194.169
  C     -214.953     153.374     194.540
  O     -214.184     152.211     194.909
  C     -213.947     154.380     193.995
  O     -214.504     155.678     193.964
  C     -212.797     154.186     194.970
  O     -213.055     154.862     196.209
  C     -212.827     152.650     195.170
  N     -211.880     151.934     194.324
  C     -210.565     151.863     194.798
  O     -210.259     152.396     195.863
  N     -209.631     151.199     194.038
  C     -209.984     150.625     192.931
  N     -209.011     149.982     192.228
  C     -211.366     150.647     192.414
  C     -212.249     151.322     193.144
  O     -219.286     152.064     195.414
  O     -218.369     154.211     194.358
  H     -212.442     154.471     196.864
  H     -219.148     154.600     194.798
  H     -211.616     150.145     191.491
  H     -213.289     151.387     192.837
  H     -212.610     152.396     196.215
  H     -211.855     154.572     194.582
  H     -213.610     154.075     192.997
  H     -215.431     153.755     195.454
  H     -208.081     149.976     192.635
  H     -216.603     153.888     193.239
  H     -209.197     149.369     191.450
  H     -215.619     152.525     192.665
  P     -213.876     156.843     193.060
  C     -215.874     156.668     191.446
  O     -214.461     156.609     191.579
  O     -212.393     156.973     193.133
  O     -214.658     158.154     193.535
  H     -214.298     158.474     194.401
  H     -216.143     156.499     190.424
  H     -216.221     157.633     191.751
  H     -216.322     155.917     192.062

 6  7  8  9  10  11  12  13  14  15  16  26  30  31  32  33  35 0
 6-311+G(2d,p)
 ****
 37  38 0
 6-311+G(2d,p)
 ****
 1  2  3  4  5  17  18  19  20  21  22  23  24  25 0
 3-21G
 ****
 27  28  29  34  36  39  40  41  42  43  44  45  46 0
 3-21G
 ****


