%nproc=1
%NoSave
%Mem=1900MB
#P OB98/GEN NMR

erre ene a

0 1
  C      220.507      69.814    -174.210
  O      219.257      70.386    -174.550
  P      218.243      69.484    -175.408
  C      217.670      68.187    -173.227
  O      217.181      68.902    -174.359
  C      216.723      68.352    -172.043
  O      216.770      69.706    -171.558
  C      215.265      68.087    -172.377
  O      215.016      66.697    -172.453
  C      214.560      68.779    -171.217
  O      214.447      67.901    -170.084
  C      215.506      69.962    -170.905
  N      214.949      71.243    -171.307
  C      214.586      72.104    -170.264
  O      214.729      71.749    -169.093
  N      214.038      73.322    -170.576
  C      213.863      73.648    -171.819
  N      213.320      74.871    -172.070
  C      214.212      72.762    -172.947
  C      214.740      71.584    -172.622
  O      219.127      68.210    -175.794
  O      217.667      70.162    -176.607
  H      214.039      67.079    -170.425
  H      218.802      67.799    -176.617
  H      214.046      73.082    -173.965
  H      215.024      70.871    -173.387
  H      215.719      70.007    -169.830
  H      213.546      69.087    -171.481
  H      214.990      68.575    -173.320
  H      217.061      67.688    -171.237
  H      213.084      75.452    -171.277
  H      218.653      68.580    -172.950
  H      213.164      75.226    -173.003
  H      217.778      67.131    -173.495
  P      213.735      66.213    -173.283
  C      215.048      65.692    -175.423
  O      214.306      65.158    -174.343
  O      213.432      67.487    -174.207
  O      212.538      65.789    -172.501
  H      212.600      67.353    -174.699
  H      215.506      64.868    -175.975
  H      215.835      66.354    -175.056
  H      214.382      66.240    -176.096
  H      221.079      70.518    -173.643
  H      221.038      69.561    -175.104
  H      220.348      68.931    -173.627

 3  4  5  6  7  8  9  10  11  12  13  21  23  27  28  29  30  32 0
 6-311+G(2d,p)
 ****
 34  35 0
 6-311+G(2d,p)
 ****
 1  2  14  15  16  17  18  19  20  22  24  25  26 0
 3-21G
 ****
 31  33  36  37  38  39  40  41  42  43  44  45  46 0
 3-21G
 ****


