%nproc=1
%NoSave
%Mem=1900MB
#P OB98/GEN NMR

erre ene a

0 1
  C      -60.106     590.073    -355.613
  O      -59.152     589.068    -355.299
  P      -57.601     589.402    -355.555
  C      -57.389     587.494    -357.292
  O      -57.264     588.890    -357.046
  C      -56.014     586.828    -357.300
  O      -56.200     585.381    -357.303
  C      -55.145     587.186    -358.513
  O      -53.797     587.434    -358.079
  C      -55.136     585.910    -359.340
  O      -53.979     585.810    -360.170
  C      -55.213     584.862    -358.226
  N      -53.477     580.577    -360.293
  C      -52.783     581.640    -359.741
  N      -51.437     581.571    -359.805
  N      -53.359     582.679    -359.180
  C      -54.715     582.593    -359.164
  C      -55.513     581.596    -359.672
  C      -54.865     580.479    -360.341
  O      -55.427     579.557    -360.922
  N      -56.844     581.858    -359.446
  C      -56.843     583.016    -358.811
  N      -55.582     583.528    -358.662
  O      -56.849     588.352    -354.614
  O      -57.192     590.803    -355.244
  H      -53.206     585.848    -359.575
  H      -56.252     588.828    -353.999
  H      -52.990     579.817    -360.732
  H      -57.736     583.535    -358.479
  H      -54.257     584.788    -357.701
  H      -56.026     585.887    -359.984
  H      -50.932     580.790    -360.182
  H      -55.506     588.051    -359.090
  H      -50.907     582.329    -359.382
  H      -55.496     587.080    -356.368
  H      -57.868     587.335    -358.265
  H      -58.016     587.054    -356.511
  P      -53.096     588.759    -358.649
  C      -51.477     587.433    -360.207
  O      -52.534     588.371    -360.102
  O      -51.779     588.904    -357.751
  O      -53.966     589.977    -358.584
  H      -51.480     589.832    -357.726
  H      -51.262     586.940    -359.246
  H      -50.577     587.952    -360.547
  H      -51.753     586.667    -360.938
  H      -61.089     589.713    -355.393
  H      -60.040     590.315    -356.653
  H      -59.908     590.948    -355.030

 3  4  5  6  7  8  9  10  11  12  23  26  30  31  33  0
 6-311+G(2d,p)
 ****
 35  36  37  38 0
 6-311+G(2d,p)
 ****
 1  2  13  14  15  16  17  18  19  20  21  22  24  25  27  28  29 0
 3-21G
 ****
 32  34  39  40  41  42  43  44  45  46  47  48  49 0
 3-21G
 ****


