%nproc=1
%NoSave
%Mem=1900MB
#P OB98/GEN NMR

erre ene a

0 1
  C     -137.062       0.459       4.485
  O     -138.068       0.365       5.477
  H     -137.511       0.258       3.509
  H     -136.283      -0.285       4.675
  H     -136.626       1.461       4.476
  P     -137.664       0.853       6.948
  C     -136.604       3.083       7.832
  O     -136.704       2.133       6.780
  C     -135.458       4.052       7.556
  O     -134.184       3.397       7.716
  C     -135.415       4.579       6.132
  O     -136.435       5.517       5.868
  C     -134.015       5.178       6.094
  O     -133.993       6.508       6.625
  C     -133.220       4.209       7.004
  N     -132.275       3.411       6.246
  C     -131.021       3.238       6.847
  O     -130.792       3.731       7.952
  N     -130.055       2.546       6.163
  C     -130.306       2.092       4.975
  N     -129.294       1.444       4.338
  C     -131.612       2.255       4.305
  C     -132.543       2.920       4.991
  O     -136.662      -0.296       7.429
  O     -138.815       1.085       7.867
  H     -134.489       7.066       5.990
  H     -135.971      -0.509       6.781
  H     -131.776       1.846       3.319
  H     -133.531       3.085       4.576
  H     -132.662       4.770       7.765
  H     -133.630       5.236       5.073
  H     -135.448       3.744       5.419
  H     -135.521       4.873       8.283
  H     -128.399       1.404       4.811
  H     -136.453       2.579       8.792
  H     -129.349       1.119       3.384
  H     -137.555       3.622       7.886
  P     -136.754       6.002       4.376
  C     -137.129       4.838       2.109
  O     -136.613       4.710       3.429
  O     -135.982       7.190       3.910
  O     -138.340       6.225       4.400
  H     -138.861       5.434       4.623
  H     -136.979       3.922       1.577
  H     -136.620       5.632       1.603
  H     -138.175       5.057       2.155

 6  7  8  9  10  11  12  13  14  15  16  26  30  31  32  33  35 0
 6-311+G(2d,p)
 ****
 37  38 0
 6-311+G(2d,p)
 ****
 1  2  3  4  5  17  18  19  20  21  22  23  24  25 0
 3-21G
 ****
 27  28  29  34  36  39  40  41  42  43  44  45  46 0
 3-21G
 ****


