%nproc=1
%NoSave
%Mem=1900MB
#P OB98/GEN NMR

erre ene a

0 1
  C     -128.077     -22.194     -51.239
  O     -127.517     -22.639     -50.021
  H     -128.191     -23.053     -51.905
  H     -127.423     -21.462     -51.721
  H     -129.064     -21.756     -51.064
  P     -127.139     -21.543     -48.910
  C     -124.670     -21.918     -49.602
  O     -125.710     -20.977     -49.384
  C     -123.319     -21.208     -49.656
  O     -123.319     -20.170     -50.657
  C     -122.912     -20.504     -48.366
  O     -122.495     -21.392     -47.344
  C     -121.776     -19.638     -48.885
  O     -120.605     -20.450     -49.085
  C     -122.356     -19.161     -50.240
  N     -122.994     -17.848     -50.156
  C     -122.509     -16.859     -51.022
  O     -121.592     -17.107     -51.804
  N     -123.052     -15.598     -50.956
  C     -123.981     -15.341     -50.089
  N     -124.451     -14.063     -50.033
  C     -124.533     -16.356     -49.171
  C     -123.997     -17.572     -49.253
  O     -127.209     -21.993     -47.487
  O     -128.099     -20.303     -49.232
  H     -120.515     -21.018     -48.298
  H     -127.912     -19.600     -48.563
  H     -125.302     -16.087     -48.462
  H     -124.338     -18.367     -48.600
  H     -121.574     -19.126     -51.006
  H     -121.500     -18.831     -48.200
  H     -123.715     -19.848     -48.009
  H     -122.569     -21.950     -49.964
  H     -124.020     -13.386     -50.648
  H     -124.875     -22.442     -50.540
  H     -124.956     -13.723     -49.221
  H     -124.644     -22.646     -48.785
  P     -122.643     -20.907     -45.819
  C     -120.079     -20.772     -45.377
  O     -121.314     -20.080     -45.468
  O     -122.472     -22.267     -44.995
  O     -123.914     -20.190     -45.488
  H     -123.340     -22.671     -44.800
  H     -119.299     -20.080     -45.138
  H     -119.864     -21.242     -46.314
  H     -120.143     -21.516     -44.611

 6  7  8  9  10  11  12  13  14  15  16  26  30  31  32  33  35 0
 6-311+G(2d,p)
 ****
 37  38 0
 6-311+G(2d,p)
 ****
 1  2  3  4  5  17  18  19  20  21  22  23  24  25 0
 3-21G
 ****
 27  28  29  34  36  39  40  41  42  43  44  45  46 0
 3-21G
 ****


