%nproc=1
%NoSave
%Mem=1900MB
#P OB98/GEN NMR

erre ene a

0 1
  C      -36.607     434.454    -165.452
  O      -36.948     434.403    -164.082
  H      -35.600     434.869    -165.550
  H      -37.307     435.103    -165.991
  H      -36.620     433.451    -165.887
  P      -38.382     433.785    -163.718
  C      -39.558     436.107    -163.673
  O      -39.477     434.819    -164.279
  C      -41.022     436.464    -163.422
  O      -41.666     436.771    -164.678
  C      -41.844     435.337    -162.801
  O      -41.630     435.227    -161.406
  C      -43.261     435.766    -163.169
  O      -43.776     436.731    -162.241
  C      -43.062     436.423    -164.544
  N      -46.587     435.652    -168.150
  C      -46.410     436.651    -167.255
  N      -45.431     436.789    -166.334
  C      -44.566     435.761    -166.407
  C      -44.622     434.668    -167.260
  C      -45.688     434.635    -168.170
  N      -45.889     433.602    -169.051
  N      -43.580     433.800    -166.998
  C      -42.910     434.356    -166.011
  N      -43.464     435.546    -165.627
  O      -38.460     433.976    -162.126
  O      -38.584     432.362    -164.122
  H      -44.573     437.112    -162.650
  H      -38.165     433.156    -161.687
  H      -47.158     437.443    -167.277
  H      -42.019     433.940    -165.542
  H      -43.637     437.351    -164.648
  H      -43.946     434.918    -163.173
  H      -41.623     434.384    -163.304
  H      -41.059     437.364    -162.790
  H      -39.114     436.852    -164.342
  H      -38.997     436.092    -162.732
  H      -46.691     433.631    -169.665
  H      -45.291     432.787    -169.002
  P      -41.583     433.770    -160.749
  C      -44.158     433.567    -160.427
  O      -42.991     433.055    -161.053
  O      -41.639     434.067    -159.174
  O      -40.389     432.957    -161.120
  H      -40.742     434.010    -158.791
  H      -45.007     432.989    -160.727
  H      -44.300     434.587    -160.718
  H      -44.046     433.511    -159.364

 6  7  8  9  10  11  12  13  14  15  25  28  32  33  34  35 0
 6-311+G(2d,p)
 ****
 36  37  40 0
 6-311+G(2d,p)
 ****
 1  2  3  4  5  16  17  18  19  20  21  22  23  24 0
 3-21G
 ****
 26  27  29  30  31  38  39 41  42  43  44  45  46  47  48 0
 3-21G
 ****


