%nproc=1
%NoSave
%Mem=1900MB
#P OB98/GEN NMR

erre ene a

0 1
  C      197.307     834.697    -106.562
  O      196.985     833.383    -106.155
  P      197.429     832.131    -107.046
  C      195.196     830.839    -106.999
  O      196.562     830.854    -106.590
  C      194.592     829.449    -106.782
  O      195.404     828.426    -107.407
  C      194.483     829.045    -105.327
  O      193.451     829.738    -104.651
  C      194.277     827.539    -105.466
  O      192.896     827.242    -105.775
  C      195.173     827.208    -106.679
  N      196.418     826.570    -106.275
  C      196.300     825.276    -105.758
  O      195.202     824.767    -105.584
  N      197.452     824.589    -105.447
  C      198.597     825.190    -105.525
  N      199.720     824.444    -105.270
  C      198.749     826.608    -105.912
  C      197.630     827.229    -106.297
  O      198.900     831.891    -107.127
  O      196.827     832.459    -108.501
  H      197.528     832.345    -109.165
  H      192.672     827.747    -106.593
  H      199.731     827.087    -105.911
  H      197.638     828.259    -106.619
  H      194.643     826.549    -107.372
  H      194.523     826.999    -104.549
  H      195.442     829.229    -104.820
  H      193.599     829.441    -107.261
  H      199.579     823.477    -105.007
  H      195.145     831.106    -108.063
  H      200.635     824.707    -105.605
  H      194.640     831.593    -106.423
  P      193.892     830.962    -103.698
  C      191.990     830.238    -102.088
  O      192.656     831.306    -102.754
  O      193.978     832.198    -104.712
  O      195.195     830.753    -102.983
  H      194.714     832.791    -104.452
  H      191.437     830.661    -101.241
  H      192.712     829.507    -101.709
  H      191.297     829.760    -102.773
  H      196.930     835.395    -105.844
  H      196.865     834.893    -107.517
  H      198.370     834.798    -106.633

 3  4  5  6  7  8  9  10  11  12  13  24  27  28  29  30  32 0
 6-311+G(2d,p)
 ****
 34  35 0
 6-311+G(2d,p)
 ****
 1  2  14  15  16  17  18  19  20  21  22  23  25  26 0
 3-21G
 ****
 31  33  36  37  38  39  40  41  42  43  44  45  46 0
 3-21G
 ****


